Test_Network/condensed/network_17/Feeder_1/LoadsCopyUnq.txt
New Load.LOAD171_1 Phases=1 Bus1=171_102.2 kV=0.23 kW=1 PF=0.95
New Load.LOAD171_2 Phases=1 Bus1=171_104.3 kV=0.23 kW=1 PF=0.95
New Load.LOAD171_3 Phases=1 Bus1=171_141.3 kV=0.23 kW=1 PF=0.95
New Load.LOAD171_4 Phases=1 Bus1=171_212.2 kV=0.23 kW=1 PF=0.95
New Load.LOAD171_5 Phases=1 Bus1=171_217.1 kV=0.23 kW=1 PF=0.95
New Load.LOAD171_6 Phases=1 Bus1=171_228.3 kV=0.23 kW=1 PF=0.95
New Load.LOAD171_7 Phases=1 Bus1=171_232.2 kV=0.23 kW=1 PF=0.95
New Load.LOAD171_8 Phases=1 Bus1=171_258.3 kV=0.23 kW=1 PF=0.95
New Load.LOAD171_9 Phases=1 Bus1=171_267.2 kV=0.23 kW=1 PF=0.95
New Load.LOAD171_10 Phases=1 Bus1=171_281.1 kV=0.23 kW=1 PF=0.95
New Load.LOAD171_11 Phases=1 Bus1=171_296.1 kV=0.23 kW=1 PF=0.95
New Load.LOAD171_12 Phases=1 Bus1=171_310.2 kV=0.23 kW=1 PF=0.95
New Load.LOAD171_13 Phases=1 Bus1=171_352.3 kV=0.23 kW=1 PF=0.95
New Load.LOAD171_14 Phases=1 Bus1=171_412.2 kV=0.23 kW=1 PF=0.95
New Load.LOAD171_15 Phases=1 Bus1=171_433.3 kV=0.23 kW=1 PF=0.95
New Load.LOAD171_16 Phases=1 Bus1=171_434.1 kV=0.23 kW=1 PF=0.95
New Load.LOAD171_17 Phases=1 Bus1=171_441.2 kV=0.23 kW=1 PF=0.95
New Load.LOAD171_18 Phases=1 Bus1=171_442.2 kV=0.23 kW=1 PF=0.95
New Load.LOAD171_19 Phases=1 Bus1=171_446.3 kV=0.23 kW=1 PF=0.95
New Load.LOAD171_20 Phases=1 Bus1=171_465.3 kV=0.23 kW=1 PF=0.95
New Load.LOAD171_21 Phases=1 Bus1=171_481.2 kV=0.23 kW=1 PF=0.95
New Load.LOAD171_22 Phases=1 Bus1=171_493.2 kV=0.23 kW=1 PF=0.95
New Load.LOAD171_23 Phases=1 Bus1=171_507.2 kV=0.23 kW=1 PF=0.95
New Load.LOAD171_24 Phases=1 Bus1=171_518.2 kV=0.23 kW=1 PF=0.95
New Load.LOAD171_25 Phases=1 Bus1=171_531.2 kV=0.23 kW=1 PF=0.95
New Load.LOAD171_26 Phases=1 Bus1=171_560.2 kV=0.23 kW=1 PF=0.95
New Load.LOAD171_27 Phases=1 Bus1=171_590.1 kV=0.23 kW=1 PF=0.95
New Load.LOAD171_28 Phases=1 Bus1=171_620.1 kV=0.23 kW=1 PF=0.95
New Load.LOAD171_29 Phases=1 Bus1=171_679.3 kV=0.23 kW=1 PF=0.95
New Load.LOAD171_30 Phases=1 Bus1=171_700.3 kV=0.23 kW=1 PF=0.95
New Load.LOAD171_31 Phases=1 Bus1=171_702.2 kV=0.23 kW=1 PF=0.95
New Load.LOAD171_32 Phases=1 Bus1=171_713.3 kV=0.23 kW=1 PF=0.95
New Load.LOAD171_33 Phases=1 Bus1=171_748.2 kV=0.23 kW=1 PF=0.95
New Load.LOAD171_34 Phases=1 Bus1=171_778.2 kV=0.23 kW=1 PF=0.95
New Load.LOAD171_35 Phases=1 Bus1=171_797.3 kV=0.23 kW=1 PF=0.95
New Load.LOAD171_36 Phases=1 Bus1=171_822.2 kV=0.23 kW=1 PF=0.95
New Load.LOAD171_37 Phases=1 Bus1=171_823.2 kV=0.23 kW=1 PF=0.95
New Load.LOAD171_38 Phases=1 Bus1=171_824.3 kV=0.23 kW=1 PF=0.95
New Load.LOAD171_39 Phases=1 Bus1=171_840.3 kV=0.23 kW=1 PF=0.95
New Load.LOAD171_40 Phases=1 Bus1=171_854.3 kV=0.23 kW=1 PF=0.95
New Load.LOAD171_41 Phases=1 Bus1=171_855.2 kV=0.23 kW=1 PF=0.95
New Load.LOAD171_42 Phases=1 Bus1=171_866.2 kV=0.23 kW=1 PF=0.95
New Load.LOAD171_43 Phases=1 Bus1=171_873.2 kV=0.23 kW=1 PF=0.95
New Load.LOAD171_44 Phases=1 Bus1=171_878.2 kV=0.23 kW=1 PF=0.95
New Load.LOAD171_45 Phases=1 Bus1=171_890.1 kV=0.23 kW=1 PF=0.95
New Load.LOAD171_46 Phases=1 Bus1=171_896.2 kV=0.23 kW=1 PF=0.95
New Load.LOAD171_47 Phases=1 Bus1=171_897.2 kV=0.23 kW=1 PF=0.95
New Load.LOAD171_48 Phases=1 Bus1=171_920.1 kV=0.23 kW=1 PF=0.95
New Load.LOAD171_49 Phases=1 Bus1=171_921.1 kV=0.23 kW=1 PF=0.95
New Load.LOAD171_50 Phases=1 Bus1=171_958.1 kV=0.23 kW=1 PF=0.95
New Load.LOAD171_51 Phases=1 Bus1=171_968.1 kV=0.23 kW=1 PF=0.95
New Load.LOAD171_52 Phases=1 Bus1=171_1012.2 kV=0.23 kW=1 PF=0.95
New Load.LOAD171_53 Phases=1 Bus1=171_1025.3 kV=0.23 kW=1 PF=0.95
New Load.LOAD171_54 Phases=1 Bus1=171_1026.3 kV=0.23 kW=1 PF=0.95
New Load.LOAD171_55 Phases=1 Bus1=171_1045.1 kV=0.23 kW=1 PF=0.95
New Load.LOAD171_56 Phases=1 Bus1=171_1046.1 kV=0.23 kW=1 PF=0.95
New Load.LOAD171_57 Phases=1 Bus1=171_1070.2 kV=0.23 kW=1 PF=0.95
New Load.LOAD171_58 Phases=1 Bus1=171_1071.2 kV=0.23 kW=1 PF=0.95
New Load.LOAD171_59 Phases=1 Bus1=171_1114.1 kV=0.23 kW=1 PF=0.95
New Load.LOAD171_60 Phases=1 Bus1=171_1119.3 kV=0.23 kW=1 PF=0.95
New Load.LOAD171_61 Phases=1 Bus1=171_1120.3 kV=0.23 kW=1 PF=0.95
New Load.LOAD171_62 Phases=1 Bus1=171_1125.2 kV=0.23 kW=1 PF=0.95
New Load.LOAD171_63 Phases=1 Bus1=171_1126.2 kV=0.23 kW=1 PF=0.95
New Load.LOAD171_64 Phases=1 Bus1=171_1159.3 kV=0.23 kW=1 PF=0.95
New Load.LOAD171_65 Phases=1 Bus1=171_1165.1 kV=0.23 kW=1 PF=0.95
New Load.LOAD171_66 Phases=1 Bus1=171_1174.2 kV=0.23 kW=1 PF=0.95
New Load.LOAD171_67 Phases=1 Bus1=171_1192.1 kV=0.23 kW=1 PF=0.95
New Load.LOAD171_68 Phases=1 Bus1=171_1201.1 kV=0.23 kW=1 PF=0.95
New Load.LOAD171_69 Phases=1 Bus1=171_1211.2 kV=0.23 kW=1 PF=0.95
New Load.LOAD171_70 Phases=1 Bus1=171_1252.2 kV=0.23 kW=1 PF=0.95
New Load.LOAD171_71 Phases=1 Bus1=171_1253.2 kV=0.23 kW=1 PF=0.95
New Load.LOAD171_72 Phases=1 Bus1=171_1254.3 kV=0.23 kW=1 PF=0.95
New Load.LOAD171_73 Phases=1 Bus1=171_1255.3 kV=0.23 kW=1 PF=0.95
New Load.LOAD171_74 Phases=1 Bus1=171_1281.3 kV=0.23 kW=1 PF=0.95
New Load.LOAD171_75 Phases=1 Bus1=171_1282.3 kV=0.23 kW=1 PF=0.95
New Load.LOAD171_76 Phases=1 Bus1=171_1316.1 kV=0.23 kW=1 PF=0.95
New Load.LOAD171_77 Phases=1 Bus1=171_1317.1 kV=0.23 kW=1 PF=0.95
New Load.LOAD171_78 Phases=1 Bus1=171_1319.1 kV=0.23 kW=1 PF=0.95
New Load.LOAD171_79 Phases=1 Bus1=171_1334.2 kV=0.23 kW=1 PF=0.95
New Load.LOAD171_80 Phases=1 Bus1=171_1335.2 kV=0.23 kW=1 PF=0.95
New Load.LOAD171_81 Phases=1 Bus1=171_1344.1 kV=0.23 kW=1 PF=0.95
New Load.LOAD171_82 Phases=1 Bus1=171_1345.1 kV=0.23 kW=1 PF=0.95
New Load.LOAD171_83 Phases=1 Bus1=171_1355.3 kV=0.23 kW=1 PF=0.95
New Load.LOAD171_84 Phases=1 Bus1=171_1369.1 kV=0.23 kW=1 PF=0.95
New Load.LOAD171_85 Phases=1 Bus1=171_1371.2 kV=0.23 kW=1 PF=0.95
New Load.LOAD171_86 Phases=1 Bus1=171_1397.2 kV=0.23 kW=1 PF=0.95
New Load.LOAD171_87 Phases=1 Bus1=171_1413.2 kV=0.23 kW=1 PF=0.95
New Load.LOAD171_88 Phases=1 Bus1=171_1419.3 kV=0.23 kW=1 PF=0.95
New Load.LOAD171_89 Phases=1 Bus1=171_1420.3 kV=0.23 kW=1 PF=0.95
New Load.LOAD171_90 Phases=1 Bus1=171_1436.2 kV=0.23 kW=1 PF=0.95
New Load.LOAD171_91 Phases=1 Bus1=171_1449.2 kV=0.23 kW=1 PF=0.95
New Load.LOAD171_92 Phases=1 Bus1=171_1478.1 kV=0.23 kW=1 PF=0.95
New Load.LOAD171_93 Phases=1 Bus1=171_1486.2 kV=0.23 kW=1 PF=0.95
New Load.LOAD171_94 Phases=1 Bus1=171_1488.3 kV=0.23 kW=1 PF=0.95
New Load.LOAD171_95 Phases=1 Bus1=171_1504.1 kV=0.23 kW=1 PF=0.95
New Load.LOAD171_96 Phases=1 Bus1=171_1514.3 kV=0.23 kW=1 PF=0.95
New Load.LOAD171_97 Phases=1 Bus1=171_1515.3 kV=0.23 kW=1 PF=0.95
New Load.LOAD171_98 Phases=1 Bus1=171_1530.1 kV=0.23 kW=1 PF=0.95
New Load.LOAD171_99 Phases=1 Bus1=171_1552.2 kV=0.23 kW=1 PF=0.95
New Load.LOAD171_100 Phases=1 Bus1=171_1601.2 kV=0.23 kW=1 PF=0.95
New Load.LOAD171_101 Phases=1 Bus1=171_1611.3 kV=0.23 kW=1 PF=0.95
New Load.LOAD171_102 Phases=1 Bus1=171_1626.2 kV=0.23 kW=1 PF=0.95
New Load.LOAD171_103 Phases=1 Bus1=171_1652.3 kV=0.23 kW=1 PF=0.95
New Load.LOAD171_104 Phases=1 Bus1=171_1678.2 kV=0.23 kW=1 PF=0.95
New Load.LOAD171_105 Phases=1 Bus1=171_1681.1 kV=0.23 kW=1 PF=0.95
New Load.LOAD171_106 Phases=1 Bus1=171_1685.1 kV=0.23 kW=1 PF=0.95
New Load.LOAD171_107 Phases=1 Bus1=171_1687.1 kV=0.23 kW=1 PF=0.95
New Load.LOAD171_108 Phases=1 Bus1=171_1689.3 kV=0.23 kW=1 PF=0.95
New Load.LOAD171_109 Phases=1 Bus1=171_1695.1 kV=0.23 kW=1 PF=0.95
New Load.LOAD171_110 Phases=1 Bus1=171_1703.3 kV=0.23 kW=1 PF=0.95
New Load.LOAD171_111 Phases=1 Bus1=171_1709.3 kV=0.23 kW=1 PF=0.95
New Load.LOAD171_112 Phases=1 Bus1=171_1726.3 kV=0.23 kW=1 PF=0.95
New Load.LOAD171_113 Phases=1 Bus1=171_1741.1 kV=0.23 kW=1 PF=0.95
New Load.LOAD171_114 Phases=1 Bus1=171_1764.1 kV=0.23 kW=1 PF=0.95
New Load.LOAD171_115 Phases=1 Bus1=171_1782.1 kV=0.23 kW=1 PF=0.95
New Load.LOAD171_116 Phases=1 Bus1=171_1797.2 kV=0.23 kW=1 PF=0.95
New Load.LOAD171_117 Phases=1 Bus1=171_1808.3 kV=0.23 kW=1 PF=0.95
New Load.LOAD171_118 Phases=1 Bus1=171_1811.1 kV=0.23 kW=1 PF=0.95
New Load.LOAD171_119 Phases=1 Bus1=171_1894.1 kV=0.23 kW=1 PF=0.95
New Load.LOAD171_120 Phases=1 Bus1=171_1902.3 kV=0.23 kW=1 PF=0.95
New Load.LOAD171_121 Phases=1 Bus1=171_1929.1 kV=0.23 kW=1 PF=0.95
New Load.LOAD171_122 Phases=1 Bus1=171_1939.3 kV=0.23 kW=1 PF=0.95
New Load.LOAD171_123 Phases=1 Bus1=171_1944.1 kV=0.23 kW=1 PF=0.95
New Load.LOAD171_124 Phases=1 Bus1=171_1969.3 kV=0.23 kW=1 PF=0.95
New Load.LOAD171_125 Phases=1 Bus1=171_2019.2 kV=0.23 kW=1 PF=0.95
New Load.LOAD171_126 Phases=1 Bus1=171_2021.2 kV=0.23 kW=1 PF=0.95
New Load.LOAD171_127 Phases=1 Bus1=171_2110.3 kV=0.23 kW=1 PF=0.95
New Load.LOAD171_128 Phases=1 Bus1=171_2157.1 kV=0.23 kW=1 PF=0.95
New Load.LOAD171_129 Phases=1 Bus1=171_2163.3 kV=0.23 kW=1 PF=0.95
New Load.LOAD171_130 Phases=1 Bus1=171_2183.2 kV=0.23 kW=1 PF=0.95
New Load.LOAD171_131 Phases=1 Bus1=171_2190.1 kV=0.23 kW=1 PF=0.95
New Load.LOAD171_132 Phases=1 Bus1=171_2192.2 kV=0.23 kW=1 PF=0.95
New Load.LOAD171_133 Phases=1 Bus1=171_2194.2 kV=0.23 kW=1 PF=0.95
New Load.LOAD171_134 Phases=1 Bus1=171_2216.2 kV=0.23 kW=1 PF=0.95
New Load.LOAD171_135 Phases=1 Bus1=171_2243.2 kV=0.23 kW=1 PF=0.95
New Load.LOAD171_136 Phases=1 Bus1=171_2279.3 kV=0.23 kW=1 PF=0.95
New Load.LOAD171_137 Phases=1 Bus1=171_2280.3 kV=0.23 kW=1 PF=0.95
New Load.LOAD171_138 Phases=1 Bus1=171_2288.2 kV=0.23 kW=1 PF=0.95
New Load.LOAD171_139 Phases=1 Bus1=171_2298.3 kV=0.23 kW=1 PF=0.95
New Load.LOAD171_140 Phases=1 Bus1=171_2300.1 kV=0.23 kW=1 PF=0.95
New Load.LOAD171_141 Phases=1 Bus1=171_2306.3 kV=0.23 kW=1 PF=0.95
New Load.LOAD171_142 Phases=1 Bus1=171_2328.2 kV=0.23 kW=1 PF=0.95
New Load.LOAD171_143 Phases=1 Bus1=171_2330.1 kV=0.23 kW=1 PF=0.95
New Load.LOAD171_144 Phases=1 Bus1=171_2369.3 kV=0.23 kW=1 PF=0.95
New Load.LOAD171_145 Phases=1 Bus1=171_2371.1 kV=0.23 kW=1 PF=0.95
New Load.LOAD171_146 Phases=1 Bus1=171_2379.2 kV=0.23 kW=1 PF=0.95
New Load.LOAD171_147 Phases=1 Bus1=171_2429.1 kV=0.23 kW=1 PF=0.95
New Load.LOAD171_148 Phases=1 Bus1=171_2464.3 kV=0.23 kW=1 PF=0.95
New Load.LOAD171_149 Phases=1 Bus1=171_2465.3 kV=0.23 kW=1 PF=0.95
New Load.LOAD171_150 Phases=1 Bus1=171_2469.1 kV=0.23 kW=1 PF=0.95
New Load.LOAD171_151 Phases=1 Bus1=171_2471.1 kV=0.23 kW=1 PF=0.95
New Load.LOAD171_152 Phases=1 Bus1=171_2472.2 kV=0.23 kW=1 PF=0.95
New Load.LOAD171_153 Phases=1 Bus1=171_2483.2 kV=0.23 kW=1 PF=0.95
New Load.LOAD171_154 Phases=1 Bus1=171_2494.1 kV=0.23 kW=1 PF=0.95
New Load.LOAD171_155 Phases=1 Bus1=171_2513.2 kV=0.23 kW=1 PF=0.95
New Load.LOAD171_156 Phases=1 Bus1=171_2517.2 kV=0.23 kW=1 PF=0.95
New Load.LOAD171_157 Phases=1 Bus1=171_2535.2 kV=0.23 kW=1 PF=0.95
New Load.LOAD171_158 Phases=1 Bus1=171_2548.3 kV=0.23 kW=1 PF=0.95
New Load.LOAD171_159 Phases=1 Bus1=171_2575.1 kV=0.23 kW=1 PF=0.95
New Load.LOAD171_160 Phases=1 Bus1=171_2577.2 kV=0.23 kW=1 PF=0.95
New Load.LOAD171_161 Phases=1 Bus1=171_2586.2 kV=0.23 kW=1 PF=0.95
New Load.LOAD171_162 Phases=1 Bus1=171_2596.3 kV=0.23 kW=1 PF=0.95
New Load.LOAD171_163 Phases=1 Bus1=171_2598.1 kV=0.23 kW=1 PF=0.95
New Load.LOAD171_164 Phases=1 Bus1=171_2603.2 kV=0.23 kW=1 PF=0.95
New Load.LOAD171_165 Phases=1 Bus1=171_2615.2 kV=0.23 kW=1 PF=0.95
New Load.LOAD171_166 Phases=1 Bus1=171_2633.3 kV=0.23 kW=1 PF=0.95
New Load.LOAD171_167 Phases=1 Bus1=171_2654.1 kV=0.23 kW=1 PF=0.95
New Load.LOAD171_168 Phases=1 Bus1=171_2672.2 kV=0.23 kW=1 PF=0.95
New Load.LOAD171_169 Phases=1 Bus1=171_2683.1 kV=0.23 kW=1 PF=0.95
New Load.LOAD171_170 Phases=1 Bus1=171_2712.2 kV=0.23 kW=1 PF=0.95
New Load.LOAD171_171 Phases=1 Bus1=171_2724.2 kV=0.23 kW=1 PF=0.95
New Load.LOAD171_172 Phases=1 Bus1=171_2729.1 kV=0.23 kW=1 PF=0.95
New Load.LOAD171_173 Phases=1 Bus1=171_2753.3 kV=0.23 kW=1 PF=0.95
New Load.LOAD171_174 Phases=1 Bus1=171_2754.1 kV=0.23 kW=1 PF=0.95
New Load.LOAD171_175 Phases=1 Bus1=171_2755.2 kV=0.23 kW=1 PF=0.95
New Load.LOAD171_176 Phases=1 Bus1=171_2757.3 kV=0.23 kW=1 PF=0.95
New Load.LOAD171_177 Phases=1 Bus1=171_2759.1 kV=0.23 kW=1 PF=0.95
New Load.LOAD171_178 Phases=1 Bus1=171_2781.2 kV=0.23 kW=1 PF=0.95
New Load.LOAD171_179 Phases=1 Bus1=171_2785.3 kV=0.23 kW=1 PF=0.95
New Load.LOAD171_180 Phases=1 Bus1=171_2787.3 kV=0.23 kW=1 PF=0.95
New Load.LOAD171_181 Phases=1 Bus1=171_2792.3 kV=0.23 kW=1 PF=0.95
New Load.LOAD171_182 Phases=1 Bus1=171_2803.3 kV=0.23 kW=1 PF=0.95
New Load.LOAD171_183 Phases=1 Bus1=171_2804.2 kV=0.23 kW=1 PF=0.95
New Load.LOAD171_184 Phases=1 Bus1=171_2815.3 kV=0.23 kW=1 PF=0.95
New Load.LOAD171_185 Phases=1 Bus1=171_2816.2 kV=0.23 kW=1 PF=0.95
New Load.LOAD171_186 Phases=1 Bus1=171_2824.1 kV=0.23 kW=1 PF=0.95
New Load.LOAD171_187 Phases=1 Bus1=171_2831.2 kV=0.23 kW=1 PF=0.95
New Load.LOAD171_188 Phases=1 Bus1=171_2837.3 kV=0.23 kW=1 PF=0.95
