Test_Network/condensed/network_17/Feeder_3/LoadsCopyUnq.txt
New Load.LOAD173_1 Phases=1 Bus1=173_76.2 kV=0.23 kW=1 PF=0.95
New Load.LOAD173_2 Phases=1 Bus1=173_83.2 kV=0.23 kW=1 PF=0.95
New Load.LOAD173_3 Phases=1 Bus1=173_103.3 kV=0.23 kW=1 PF=0.95
New Load.LOAD173_4 Phases=1 Bus1=173_111.2 kV=0.23 kW=1 PF=0.95
New Load.LOAD173_5 Phases=1 Bus1=173_163.1 kV=0.23 kW=1 PF=0.95
New Load.LOAD173_6 Phases=1 Bus1=173_173.1 kV=0.23 kW=1 PF=0.95
New Load.LOAD173_7 Phases=1 Bus1=173_200.3 kV=0.23 kW=1 PF=0.95
New Load.LOAD173_8 Phases=1 Bus1=173_207.2 kV=0.23 kW=1 PF=0.95
New Load.LOAD173_9 Phases=1 Bus1=173_258.1 kV=0.23 kW=1 PF=0.95
New Load.LOAD173_10 Phases=1 Bus1=173_262.3 kV=0.23 kW=1 PF=0.95
New Load.LOAD173_11 Phases=1 Bus1=173_267.1 kV=0.23 kW=1 PF=0.95
New Load.LOAD173_12 Phases=1 Bus1=173_273.2 kV=0.23 kW=1 PF=0.95
New Load.LOAD173_13 Phases=1 Bus1=173_297.2 kV=0.23 kW=1 PF=0.95
New Load.LOAD173_14 Phases=1 Bus1=173_308.1 kV=0.23 kW=1 PF=0.95
New Load.LOAD173_15 Phases=1 Bus1=173_309.1 kV=0.23 kW=1 PF=0.95
New Load.LOAD173_16 Phases=1 Bus1=173_327.1 kV=0.23 kW=1 PF=0.95
New Load.LOAD173_17 Phases=1 Bus1=173_341.1 kV=0.23 kW=1 PF=0.95
New Load.LOAD173_18 Phases=1 Bus1=173_346.3 kV=0.23 kW=1 PF=0.95
New Load.LOAD173_19 Phases=1 Bus1=173_347.3 kV=0.23 kW=1 PF=0.95
New Load.LOAD173_20 Phases=1 Bus1=173_352.3 kV=0.23 kW=1 PF=0.95
New Load.LOAD173_21 Phases=1 Bus1=173_353.3 kV=0.23 kW=1 PF=0.95
New Load.LOAD173_22 Phases=1 Bus1=173_354.2 kV=0.23 kW=1 PF=0.95
New Load.LOAD173_23 Phases=1 Bus1=173_363.2 kV=0.23 kW=1 PF=0.95
New Load.LOAD173_24 Phases=1 Bus1=173_364.2 kV=0.23 kW=1 PF=0.95
New Load.LOAD173_25 Phases=1 Bus1=173_374.1 kV=0.23 kW=1 PF=0.95
New Load.LOAD173_26 Phases=1 Bus1=173_405.3 kV=0.23 kW=1 PF=0.95
New Load.LOAD173_27 Phases=1 Bus1=173_445.2 kV=0.23 kW=1 PF=0.95
New Load.LOAD173_28 Phases=1 Bus1=173_468.2 kV=0.23 kW=1 PF=0.95
New Load.LOAD173_29 Phases=1 Bus1=173_475.2 kV=0.23 kW=1 PF=0.95
New Load.LOAD173_30 Phases=1 Bus1=173_511.1 kV=0.23 kW=1 PF=0.95
New Load.LOAD173_31 Phases=1 Bus1=173_520.2 kV=0.23 kW=1 PF=0.95
New Load.LOAD173_32 Phases=1 Bus1=173_543.3 kV=0.23 kW=1 PF=0.95
New Load.LOAD173_33 Phases=1 Bus1=173_544.2 kV=0.23 kW=1 PF=0.95
New Load.LOAD173_34 Phases=1 Bus1=173_571.2 kV=0.23 kW=1 PF=0.95
New Load.LOAD173_35 Phases=1 Bus1=173_572.3 kV=0.23 kW=1 PF=0.95
New Load.LOAD173_36 Phases=1 Bus1=173_607.2 kV=0.23 kW=1 PF=0.95
New Load.LOAD173_37 Phases=1 Bus1=173_614.2 kV=0.23 kW=1 PF=0.95
New Load.LOAD173_38 Phases=1 Bus1=173_626.1 kV=0.23 kW=1 PF=0.95
New Load.LOAD173_39 Phases=1 Bus1=173_638.3 kV=0.23 kW=1 PF=0.95
New Load.LOAD173_40 Phases=1 Bus1=173_643.2 kV=0.23 kW=1 PF=0.95
New Load.LOAD173_41 Phases=1 Bus1=173_644.2 kV=0.23 kW=1 PF=0.95
New Load.LOAD173_42 Phases=1 Bus1=173_651.1 kV=0.23 kW=1 PF=0.95
New Load.LOAD173_43 Phases=1 Bus1=173_655.1 kV=0.23 kW=1 PF=0.95
New Load.LOAD173_44 Phases=1 Bus1=173_656.1 kV=0.23 kW=1 PF=0.95
New Load.LOAD173_45 Phases=1 Bus1=173_734.3 kV=0.23 kW=1 PF=0.95
New Load.LOAD173_46 Phases=1 Bus1=173_743.2 kV=0.23 kW=1 PF=0.95
New Load.LOAD173_47 Phases=1 Bus1=173_744.1 kV=0.23 kW=1 PF=0.95
New Load.LOAD173_48 Phases=1 Bus1=173_753.2 kV=0.23 kW=1 PF=0.95
New Load.LOAD173_49 Phases=1 Bus1=173_768.1 kV=0.23 kW=1 PF=0.95
New Load.LOAD173_50 Phases=1 Bus1=173_792.3 kV=0.23 kW=1 PF=0.95
New Load.LOAD173_51 Phases=1 Bus1=173_793.2 kV=0.23 kW=1 PF=0.95
New Load.LOAD173_52 Phases=1 Bus1=173_822.1 kV=0.23 kW=1 PF=0.95
New Load.LOAD173_53 Phases=1 Bus1=173_850.3 kV=0.23 kW=1 PF=0.95
New Load.LOAD173_54 Phases=1 Bus1=173_858.1 kV=0.23 kW=1 PF=0.95
New Load.LOAD173_55 Phases=1 Bus1=173_887.3 kV=0.23 kW=1 PF=0.95
New Load.LOAD173_56 Phases=1 Bus1=173_888.2 kV=0.23 kW=1 PF=0.95
New Load.LOAD173_57 Phases=1 Bus1=173_923.2 kV=0.23 kW=1 PF=0.95
New Load.LOAD173_58 Phases=1 Bus1=173_925.1 kV=0.23 kW=1 PF=0.95
New Load.LOAD173_59 Phases=1 Bus1=173_936.3 kV=0.23 kW=1 PF=0.95
New Load.LOAD173_60 Phases=1 Bus1=173_953.1 kV=0.23 kW=1 PF=0.95
New Load.LOAD173_61 Phases=1 Bus1=173_984.2 kV=0.23 kW=1 PF=0.95
New Load.LOAD173_62 Phases=1 Bus1=173_986.1 kV=0.23 kW=1 PF=0.95
New Load.LOAD173_63 Phases=1 Bus1=173_989.2 kV=0.23 kW=1 PF=0.95
New Load.LOAD173_64 Phases=1 Bus1=173_995.1 kV=0.23 kW=1 PF=0.95
New Load.LOAD173_65 Phases=1 Bus1=173_1027.3 kV=0.23 kW=1 PF=0.95
New Load.LOAD173_66 Phases=1 Bus1=173_1037.1 kV=0.23 kW=1 PF=0.95
New Load.LOAD173_67 Phases=1 Bus1=173_1039.2 kV=0.23 kW=1 PF=0.95
New Load.LOAD173_68 Phases=1 Bus1=173_1040.1 kV=0.23 kW=1 PF=0.95
New Load.LOAD173_69 Phases=1 Bus1=173_1062.2 kV=0.23 kW=1 PF=0.95
New Load.LOAD173_70 Phases=1 Bus1=173_1064.3 kV=0.23 kW=1 PF=0.95
New Load.LOAD173_71 Phases=1 Bus1=173_1071.3 kV=0.23 kW=1 PF=0.95
New Load.LOAD173_72 Phases=1 Bus1=173_1083.1 kV=0.23 kW=1 PF=0.95
New Load.LOAD173_73 Phases=1 Bus1=173_1099.3 kV=0.23 kW=1 PF=0.95
New Load.LOAD173_74 Phases=1 Bus1=173_1103.2 kV=0.23 kW=1 PF=0.95
New Load.LOAD173_75 Phases=1 Bus1=173_1122.3 kV=0.23 kW=1 PF=0.95
New Load.LOAD173_76 Phases=1 Bus1=173_1129.2 kV=0.23 kW=1 PF=0.95
New Load.LOAD173_77 Phases=1 Bus1=173_1131.1 kV=0.23 kW=1 PF=0.95
New Load.LOAD173_78 Phases=1 Bus1=173_1133.3 kV=0.23 kW=1 PF=0.95
