Test_Network/condensed/network_17/Feeder_4/LinesUnq_pruned.txt
New Line.LINE174_1 Bus1=174_1 Bus2=174_2 phases=3 Linecode=3c_300_SAC_XC Length=0.63343 Units=m
New Line.LINE174_2 Bus1=174_2 Bus2=174_3 phases=3 Linecode=3c_300_SAC_XC Length=0.11327 Units=m
New Line.LINE174_3 Bus1=174_3 Bus2=174_4 phases=3 Linecode=3c_300_SAC_XC Length=0.11322 Units=m
New Line.LINE174_4 Bus1=174_4 Bus2=174_5 phases=3 Linecode=3c_300_SAC_XC Length=0.113 Units=m
New Line.LINE174_5 Bus1=174_5 Bus2=174_6 phases=3 Linecode=3c_300_SAC_XC Length=0.11323 Units=m
New Line.LINE174_6 Bus1=174_6 Bus2=174_7 phases=3 Linecode=3c_300_SAC_XC Length=0.11318 Units=m
New Line.LINE174_7 Bus1=174_7 Bus2=174_8 phases=3 Linecode=3c_300_SAC_XC Length=0.11307 Units=m
New Line.LINE174_8 Bus1=174_8 Bus2=174_9 phases=3 Linecode=3c_300_SAC_XC Length=0.1127 Units=m
New Line.LINE174_9 Bus1=174_9 Bus2=174_10 phases=3 Linecode=3c_300_SAC_XC Length=0.11337 Units=m
New Line.LINE174_10 Bus1=174_10 Bus2=174_11 phases=3 Linecode=3c_300_SAC_XC Length=1.775 Units=m
New Line.LINE174_11 Bus1=174_11 Bus2=174_12 phases=3 Linecode=3c_300_SAC_XC Length=1.0447 Units=m
New Line.LINE174_12 Bus1=174_12 Bus2=174_13 phases=3 Linecode=3c_300_SAC_XC Length=0.14625 Units=m
New Line.LINE174_13 Bus1=174_13 Bus2=174_14 phases=3 Linecode=3c_300_SAC_XC Length=0.14463 Units=m
New Line.LINE174_14 Bus1=174_14 Bus2=174_15 phases=3 Linecode=3c_300_SAC_XC Length=0.14534 Units=m
New Line.LINE174_15 Bus1=174_15 Bus2=174_16 phases=3 Linecode=3c_300_SAC_XC Length=0.14649 Units=m
New Line.LINE174_16 Bus1=174_16 Bus2=174_17 phases=3 Linecode=3c_300_SAC_XC Length=0.14578 Units=m
New Line.LINE174_17 Bus1=174_17 Bus2=174_18 phases=3 Linecode=3c_300_SAC_XC Length=3.6542 Units=m
New Line.LINE174_18 Bus1=174_18 Bus2=174_19 phases=3 Linecode=3c_300_SAC_XC Length=0.20492 Units=m
New Line.LINE174_19 Bus1=174_19 Bus2=174_20 phases=3 Linecode=3c_300_SAC_XC Length=0.20395 Units=m
New Line.LINE174_20 Bus1=174_20 Bus2=174_21 phases=3 Linecode=3c_300_SAC_XC Length=0.205 Units=m
New Line.LINE174_21 Bus1=174_21 Bus2=174_22 phases=3 Linecode=3c_300_SAC_XC Length=0.20583 Units=m
New Line.LINE174_22 Bus1=174_22 Bus2=174_23 phases=3 Linecode=3c_300_SAC_XC Length=0.20386 Units=m
New Line.LINE174_23 Bus1=174_23 Bus2=174_24 phases=3 Linecode=3c_300_SAC_XC Length=0.26428 Units=m
New Line.LINE174_24 Bus1=174_24 Bus2=174_25 phases=3 Linecode=3c_300_SAC_XC Length=0.68618 Units=m
New Line.LINE174_25 Bus1=174_25 Bus2=174_26 phases=3 Linecode=3c_300_SAC_XC Length=0.34171 Units=m
New Line.LINE174_26 Bus1=174_26 Bus2=174_27 phases=3 Linecode=3c_300_SAC_XC Length=0.82954 Units=m
New Line.LINE174_27 Bus1=174_27 Bus2=174_28 phases=3 Linecode=3c_300_SAC_XC Length=29.1676 Units=m
New Line.LINE174_28 Bus1=174_28 Bus2=174_29 phases=3 Linecode=3c_300_SAC_XC Length=0.93062 Units=m
New Line.LINE174_29 Bus1=174_29 Bus2=174_30 phases=3 Linecode=3c_300_SAC_XC Length=0.44288 Units=m
New Line.LINE174_30 Bus1=174_30 Bus2=174_31 phases=3 Linecode=3c_300_SAC_XC Length=0.44293 Units=m
New Line.LINE174_31 Bus1=174_31 Bus2=174_32 phases=3 Linecode=3c_300_SAC_XC Length=0.073593 Units=m
New Line.LINE174_32 Bus1=174_32 Bus2=174_33 phases=3 Linecode=3c_300_SAC_XC Length=0.072945 Units=m
New Line.LINE174_33 Bus1=174_33 Bus2=174_34 phases=3 Linecode=3c_300_SAC_XC Length=0.87728 Units=m
New Line.LINE174_34 Bus1=174_34 Bus2=174_35 phases=3 Linecode=4c_.25 Length=1.5185 Units=m
New Line.LINE174_35 Bus1=174_35 Bus2=174_36 phases=3 Linecode=4c_.25 Length=9.173 Units=m
New Line.LINE174_36 Bus1=174_36 Bus2=174_37 phases=3 Linecode=4c_.25 Length=0.23938 Units=m
New Line.LINE174_37 Bus1=174_37 Bus2=174_38 phases=3 Linecode=4c_.25 Length=0.2438 Units=m
New Line.LINE174_38 Bus1=174_38 Bus2=174_39 phases=3 Linecode=4c_.25 Length=0.23471 Units=m
New Line.LINE174_39 Bus1=174_39 Bus2=174_40 phases=3 Linecode=4c_.25 Length=0.24512 Units=m
New Line.LINE174_40 Bus1=174_40 Bus2=174_41 phases=3 Linecode=4c_.25 Length=0.37887 Units=m
New Line.LINE174_41 Bus1=174_41 Bus2=174_42 phases=3 Linecode=4c_.25 Length=0.28956 Units=m
New Line.LINE174_42 Bus1=174_42 Bus2=174_43 phases=3 Linecode=4c_.25 Length=1.0657 Units=m
New Line.LINE174_44 Bus1=174_43 Bus2=174_45 phases=3 Linecode=4c_.25 Length=10.0833 Units=m
New Line.LINE174_46 Bus1=174_45 Bus2=174_47 phases=3 Linecode=4c_.25 Length=5.4379 Units=m
New Line.LINE174_50 Bus1=174_47 Bus2=174_51 phases=3 Linecode=2c_.04 Length=6.3571 Units=m
New Line.LINE174_58 Bus1=174_54 Bus2=174_59 phases=3 Linecode=2c_.04 Length=6.5276 Units=m
New Line.LINE174_103 Bus1=174_97 Bus2=174_104 phases=3 Linecode=2c_.04 Length=3.5564 Units=m
New Line.LINE174_105 Bus1=174_98 Bus2=174_106 phases=3 Linecode=2c_.04 Length=4.3132 Units=m
New Line.LINE174_113 Bus1=174_108 Bus2=174_114 phases=3 Linecode=2c_.04 Length=4.3549 Units=m
New Line.LINE174_115 Bus1=174_109 Bus2=174_116 phases=3 Linecode=2c_.04 Length=3.113 Units=m
New Line.LINE174_193 Bus1=174_187 Bus2=174_194 phases=3 Linecode=2c_.04 Length=2.7077 Units=m
New Line.LINE174_195 Bus1=174_188 Bus2=174_196 phases=3 Linecode=2c_.04 Length=4.1456 Units=m
New Line.LINE174_199 Bus1=174_191 Bus2=174_200 phases=3 Linecode=2c_.04 Length=5.0178 Units=m
New Line.LINE174_214 Bus1=174_207 Bus2=174_215 phases=3 Linecode=2c_.04 Length=2.9792 Units=m
New Line.LINE174_246 Bus1=174_237 Bus2=174_247 phases=3 Linecode=2c_.04 Length=5.7233 Units=m
New Line.LINE174_251 Bus1=174_240 Bus2=174_252 phases=3 Linecode=4c_.3_SAC Length=0.23632 Units=m
New Line.LINE174_262 Bus1=174_252 Bus2=174_263 phases=3 Linecode=4c_.3_SAC Length=0.71779 Units=m
New Line.LINE174_273 Bus1=174_263 Bus2=174_274 phases=3 Linecode=4c_.3_SAC Length=0.76073 Units=m
New Line.LINE174_278 Bus1=174_269 Bus2=174_279 phases=3 Linecode=2c_.04 Length=9.0513 Units=m
New Line.LINE174_285 Bus1=174_274 Bus2=174_286 phases=3 Linecode=4c_.3_SAC Length=0.78487 Units=m
New Line.LINE174_295 Bus1=174_284 Bus2=174_296 phases=3 Linecode=4c_.25 Length=16.8578 Units=m
New Line.LINE174_298 Bus1=174_286 Bus2=174_299 phases=3 Linecode=4c_.3_SAC Length=1.1049 Units=m
New Line.LINE174_312 Bus1=174_299 Bus2=174_313 phases=3 Linecode=4c_.3_SAC Length=1.4551 Units=m
New Line.LINE174_320 Bus1=174_307 Bus2=174_321 phases=3 Linecode=2c_.04 Length=8.9534 Units=m
New Line.LINE174_328 Bus1=174_313 Bus2=174_329 phases=3 Linecode=4c_.3_SAC Length=1.0758 Units=m
New Line.LINE174_345 Bus1=174_329 Bus2=174_346 phases=3 Linecode=4c_.3_SAC Length=0.97966 Units=m
New Line.LINE174_361 Bus1=174_346 Bus2=174_362 phases=3 Linecode=4c_.3_SAC Length=1.0848 Units=m
New Line.LINE174_365 Bus1=174_351 Bus2=174_366 phases=3 Linecode=2c_.04 Length=3.5182 Units=m
New Line.LINE174_366 Bus1=174_351 Bus2=174_367 phases=3 Linecode=2c_.04 Length=3.5182 Units=m
New Line.LINE174_367 Bus1=174_352 Bus2=174_368 phases=3 Linecode=2c_.04 Length=5.7275 Units=m
New Line.LINE174_368 Bus1=174_352 Bus2=174_369 phases=3 Linecode=2c_.04 Length=5.7275 Units=m
New Line.LINE174_377 Bus1=174_360 Bus2=174_378 phases=3 Linecode=2c_.04 Length=3.0639 Units=m
New Line.LINE174_380 Bus1=174_362 Bus2=174_381 phases=3 Linecode=4c_.3_SAC Length=1.4187 Units=m
New Line.LINE174_394 Bus1=174_381 Bus2=174_395 phases=3 Linecode=4c_.3_SAC Length=2.2706 Units=m
New Line.LINE174_404 Bus1=174_392 Bus2=174_405 phases=3 Linecode=2c_.04 Length=3.6684 Units=m
New Line.LINE174_408 Bus1=174_395 Bus2=174_409 phases=3 Linecode=4c_.3_SAC Length=7.0711 Units=m
New Line.LINE174_409 Bus1=174_397 Bus2=174_410 phases=3 Linecode=2c_.04 Length=2.02 Units=m
New Line.LINE174_410 Bus1=174_397 Bus2=174_411 phases=3 Linecode=2c_.04 Length=2.02 Units=m
New Line.LINE174_411 Bus1=174_398 Bus2=174_412 phases=3 Linecode=2c_.04 Length=3.7331 Units=m
New Line.LINE174_412 Bus1=174_398 Bus2=174_413 phases=3 Linecode=2c_.04 Length=3.7331 Units=m
New Line.LINE174_421 Bus1=174_409 Bus2=174_422 phases=3 Linecode=4c_.12 Length=0.61264 Units=m
New Line.LINE174_431 Bus1=174_422 Bus2=174_432 phases=3 Linecode=4c_.12 Length=20.749 Units=m
New Line.LINE174_435 Bus1=174_425 Bus2=174_436 phases=3 Linecode=4c_.25 Length=5.5845 Units=m
New Line.LINE174_443 Bus1=174_432 Bus2=174_444 phases=3 Linecode=4c_.12 Length=3.7383 Units=m
New Line.LINE174_451 Bus1=174_440 Bus2=174_452 phases=3 Linecode=2c_.04 Length=2.8778 Units=m
New Line.LINE174_456 Bus1=174_444 Bus2=174_457 phases=3 Linecode=2c_.04 Length=5.9176 Units=m
New Line.LINE174_475 Bus1=174_463 Bus2=174_476 phases=3 Linecode=4c_.25 Length=1.4842 Units=m
New Line.LINE174_477 Bus1=174_465 Bus2=174_478 phases=3 Linecode=2c_.04 Length=4.827 Units=m
New Line.LINE174_490 Bus1=174_476 Bus2=174_491 phases=3 Linecode=4c_.25 Length=5.7832 Units=m
New Line.LINE174_496 Bus1=174_483 Bus2=174_497 phases=3 Linecode=2c_.04 Length=3.7578 Units=m
New Line.LINE174_506 Bus1=174_491 Bus2=174_507 phases=3 Linecode=4c_.25 Length=8.7539 Units=m
New Line.LINE174_507 Bus1=174_492 Bus2=174_508 phases=3 Linecode=2c_.04 Length=4.9729 Units=m
New Line.LINE174_523 Bus1=174_507 Bus2=174_524 phases=3 Linecode=2c_.04 Length=9.8871 Units=m
New Line.LINE174_565 Bus1=174_547 Bus2=174_566 phases=3 Linecode=2c_.04 Length=2.9529 Units=m
New Line.LINE174_566 Bus1=174_547 Bus2=174_567 phases=3 Linecode=2c_.04 Length=2.9529 Units=m
New Line.LINE174_631 Bus1=174_617 Bus2=174_632 phases=3 Linecode=2c_.04 Length=5.0365 Units=m
New Line.LINE174_636 Bus1=174_622 Bus2=174_637 phases=3 Linecode=2c_.04 Length=10.1351 Units=m
New Line.LINE174_665 Bus1=174_649 Bus2=174_666 phases=3 Linecode=2c_.04 Length=4.4506 Units=m
New Line.LINE174_666 Bus1=174_649 Bus2=174_667 phases=3 Linecode=2c_.04 Length=4.4506 Units=m
New Line.LINE174_692 Bus1=174_675 Bus2=174_693 phases=3 Linecode=4c_.12 Length=5.8229 Units=m
New Line.LINE174_693 Bus1=174_675 Bus2=174_694 phases=3 Linecode=2c_.04 Length=5.7031 Units=m
New Line.LINE174_709 Bus1=174_693 Bus2=174_710 phases=3 Linecode=4c_.12 Length=0.74149 Units=m
New Line.LINE174_726 Bus1=174_710 Bus2=174_727 phases=3 Linecode=4c_.04 Length=1.4913 Units=m
New Line.LINE174_740 Bus1=174_724 Bus2=174_741 phases=3 Linecode=2c_.04 Length=4.293 Units=m
New Line.LINE174_742 Bus1=174_725 Bus2=174_743 phases=3 Linecode=2c_.04 Length=1.8769 Units=m
New Line.LINE174_745 Bus1=174_727 Bus2=174_746 phases=3 Linecode=4c_.04 Length=5.047 Units=m
New Line.LINE174_760 Bus1=174_746 Bus2=174_761 phases=3 Linecode=4c_.04 Length=8.5363 Units=m
New Line.LINE174_770 Bus1=174_757 Bus2=174_771 phases=3 Linecode=2c_.04 Length=5.1535 Units=m
New Line.LINE174_775 Bus1=174_761 Bus2=174_776 phases=3 Linecode=4c_.04 Length=7.4185 Units=m
New Line.LINE174_784 Bus1=174_770 Bus2=174_785 phases=3 Linecode=2c_.04 Length=5.3109 Units=m
New Line.LINE174_797 Bus1=174_782 Bus2=174_798 phases=3 Linecode=2c_.04 Length=4.0706 Units=m
New Line.LINE174_812 Bus1=174_797 Bus2=174_813 phases=3 Linecode=2c_.04 Length=7.2653 Units=m
New Line.LINE174_813 Bus1=174_797 Bus2=174_814 phases=3 Linecode=4c_.06 Length=1.8591 Units=m
New Line.LINE174_815 Bus1=174_800 Bus2=174_816 phases=3 Linecode=2c_.04 Length=3.9397 Units=m
New Line.LINE174_816 Bus1=174_800 Bus2=174_817 phases=3 Linecode=2c_.04 Length=3.9397 Units=m
New Line.LINE174_828 Bus1=174_813 Bus2=174_829 phases=3 Linecode=2c_.04 Length=5.2662 Units=m
New Line.LINE174_872 Bus1=174_858 Bus2=174_873 phases=3 Linecode=2c_.04 Length=5.52 Units=m
New Line.LINE174_877 Bus1=174_862 Bus2=174_878 phases=3 Linecode=2c_.04 Length=4.0492 Units=m
New Line.LINE174_928 Bus1=174_915 Bus2=174_929 phases=3 Linecode=2c_.04 Length=1.4203 Units=m
New Line.LINE174_955 Bus1=174_945 Bus2=174_956 phases=3 Linecode=2c_.04 Length=3.5946 Units=m
New Line.LINE174_956 Bus1=174_945 Bus2=174_957 phases=3 Linecode=2c_.04 Length=3.5946 Units=m
New Line.LINE174_960 Bus1=174_948 Bus2=174_961 phases=3 Linecode=2c_.04 Length=5.896 Units=m
New Line.LINE174_961 Bus1=174_948 Bus2=174_962 phases=3 Linecode=2c_.04 Length=5.896 Units=m
New Line.LINE174_1019 Bus1=174_1009 Bus2=174_1020 phases=3 Linecode=2c_.04 Length=6.6052 Units=m
New Line.LINE174_1020 Bus1=174_1009 Bus2=174_1021 phases=3 Linecode=2c_.04 Length=6.6052 Units=m
New Line.LINE174_1054 Bus1=174_1044 Bus2=174_1055 phases=3 Linecode=2c_.04 Length=6.4201 Units=m
New Line.LINE174_1059 Bus1=174_1047 Bus2=174_1060 phases=3 Linecode=4c_.06 Length=1.3338 Units=m
New Line.LINE174_1070 Bus1=174_1060 Bus2=174_1071 phases=3 Linecode=4c_.06 Length=0.2865 Units=m
New Line.LINE174_1082 Bus1=174_1071 Bus2=174_1083 phases=3 Linecode=4c_.06 Length=0.257 Units=m
New Line.LINE174_1086 Bus1=174_1074 Bus2=174_1087 phases=3 Linecode=4c_.06 Length=0.74271 Units=m
New Line.LINE174_1094 Bus1=174_1083 Bus2=174_1095 phases=3 Linecode=4c_.06 Length=0.58313 Units=m
New Line.LINE174_1098 Bus1=174_1087 Bus2=174_1099 phases=3 Linecode=4c_.06 Length=0.24299 Units=m
New Line.LINE174_1105 Bus1=174_1095 Bus2=174_1106 phases=3 Linecode=4c_.06 Length=3.2188 Units=m
New Line.LINE174_1108 Bus1=174_1099 Bus2=174_1109 phases=3 Linecode=4c_.06 Length=0.20972 Units=m
New Line.LINE174_1109 Bus1=174_1100 Bus2=174_1110 phases=3 Linecode=2c_.04 Length=7.853 Units=m
New Line.LINE174_1110 Bus1=174_1100 Bus2=174_1111 phases=3 Linecode=2c_.04 Length=7.853 Units=m
New Line.LINE174_1116 Bus1=174_1106 Bus2=174_1117 phases=3 Linecode=4c_.06 Length=0.25724 Units=m
New Line.LINE174_1119 Bus1=174_1109 Bus2=174_1120 phases=3 Linecode=4c_.06 Length=0.2016 Units=m
New Line.LINE174_1125 Bus1=174_1117 Bus2=174_1126 phases=3 Linecode=4c_.06 Length=0.25668 Units=m
New Line.LINE174_1128 Bus1=174_1120 Bus2=174_1129 phases=3 Linecode=4c_.06 Length=0.40719 Units=m
New Line.LINE174_1135 Bus1=174_1126 Bus2=174_1136 phases=3 Linecode=4c_.06 Length=3.5558 Units=m
New Line.LINE174_1138 Bus1=174_1129 Bus2=174_1139 phases=3 Linecode=4c_.06 Length=2.8208 Units=m
New Line.LINE174_1145 Bus1=174_1136 Bus2=174_1146 phases=3 Linecode=4c_.06 Length=0.45477 Units=m
New Line.LINE174_1148 Bus1=174_1139 Bus2=174_1149 phases=3 Linecode=4c_.06 Length=0.74131 Units=m
New Line.LINE174_1154 Bus1=174_1146 Bus2=174_1155 phases=3 Linecode=4c_.06 Length=0.24253 Units=m
New Line.LINE174_1158 Bus1=174_1149 Bus2=174_1159 phases=3 Linecode=4c_.06 Length=0.20494 Units=m
New Line.LINE174_1164 Bus1=174_1155 Bus2=174_1165 phases=3 Linecode=4c_.06 Length=0.191 Units=m
New Line.LINE174_1167 Bus1=174_1159 Bus2=174_1168 phases=3 Linecode=4c_.06 Length=0.2229 Units=m
New Line.LINE174_1173 Bus1=174_1165 Bus2=174_1174 phases=3 Linecode=4c_.06 Length=0.58421 Units=m
New Line.LINE174_1176 Bus1=174_1168 Bus2=174_1177 phases=3 Linecode=4c_.06 Length=0.3875 Units=m
New Line.LINE174_1181 Bus1=174_1174 Bus2=174_1182 phases=3 Linecode=4c_.06 Length=4.3502 Units=m
New Line.LINE174_1184 Bus1=174_1177 Bus2=174_1185 phases=3 Linecode=4c_.06 Length=2.5562 Units=m
New Line.LINE174_1189 Bus1=174_1182 Bus2=174_1190 phases=3 Linecode=4c_.06 Length=0.33534 Units=m
New Line.LINE174_1192 Bus1=174_1185 Bus2=174_1193 phases=3 Linecode=4c_.06 Length=0.53222 Units=m
New Line.LINE174_1197 Bus1=174_1190 Bus2=174_1198 phases=3 Linecode=4c_.04 Length=0.21541 Units=m
New Line.LINE174_1200 Bus1=174_1193 Bus2=174_1201 phases=3 Linecode=4c_.06 Length=0.26624 Units=m
New Line.LINE174_1203 Bus1=174_1196 Bus2=174_1204 phases=3 Linecode=2c_.04 Length=4.8154 Units=m
New Line.LINE174_1205 Bus1=174_1197 Bus2=174_1206 phases=3 Linecode=2c_.04 Length=5.1199 Units=m
New Line.LINE174_1207 Bus1=174_1198 Bus2=174_1208 phases=3 Linecode=4c_.04 Length=0.030083 Units=m
New Line.LINE174_1209 Bus1=174_1200 Bus2=174_1210 phases=3 Linecode=3c_.04 Length=5.031 Units=m
New Line.LINE174_1211 Bus1=174_1201 Bus2=174_1212 phases=3 Linecode=4c_.06 Length=0.2066 Units=m
New Line.LINE174_1216 Bus1=174_1208 Bus2=174_1217 phases=3 Linecode=4c_.04 Length=0.2757 Units=m
New Line.LINE174_1219 Bus1=174_1212 Bus2=174_1220 phases=3 Linecode=4c_.06 Length=0.83873 Units=m
New Line.LINE174_1224 Bus1=174_1217 Bus2=174_1225 phases=3 Linecode=4c_.04 Length=0.33435 Units=m
New Line.LINE174_1225 Bus1=174_1218 Bus2=174_1226 phases=3 Linecode=2c_.04 Length=5.6364 Units=m
New Line.LINE174_1228 Bus1=174_1220 Bus2=174_1229 phases=3 Linecode=4c_.06 Length=3.3674 Units=m
New Line.LINE174_1233 Bus1=174_1225 Bus2=174_1234 phases=3 Linecode=4c_.04 Length=0.38783 Units=m
New Line.LINE174_1236 Bus1=174_1229 Bus2=174_1237 phases=3 Linecode=4c_.06 Length=0.89699 Units=m
New Line.LINE174_1237 Bus1=174_1230 Bus2=174_1238 phases=3 Linecode=2c_.04 Length=2.9033 Units=m
New Line.LINE174_1238 Bus1=174_1230 Bus2=174_1239 phases=3 Linecode=2c_.04 Length=2.9033 Units=m
New Line.LINE174_1242 Bus1=174_1234 Bus2=174_1243 phases=3 Linecode=4c_.04 Length=12.2915 Units=m
New Line.LINE174_1245 Bus1=174_1237 Bus2=174_1246 phases=3 Linecode=4c_.04 Length=0.37448 Units=m
New Line.LINE174_1252 Bus1=174_1246 Bus2=174_1253 phases=3 Linecode=4c_.04 Length=0.17832 Units=m
New Line.LINE174_1259 Bus1=174_1253 Bus2=174_1260 phases=3 Linecode=4c_.04 Length=0.084095 Units=m
New Line.LINE174_1266 Bus1=174_1260 Bus2=174_1267 phases=3 Linecode=4c_.04 Length=0.060828 Units=m
New Line.LINE174_1273 Bus1=174_1267 Bus2=174_1274 phases=3 Linecode=4c_.04 Length=0.22698 Units=m
New Line.LINE174_1280 Bus1=174_1274 Bus2=174_1281 phases=3 Linecode=4c_.04 Length=0.62263 Units=m
New Line.LINE174_1284 Bus1=174_1278 Bus2=174_1285 phases=3 Linecode=2c_.04 Length=4.25 Units=m
New Line.LINE174_1288 Bus1=174_1281 Bus2=174_1289 phases=3 Linecode=4c_.04 Length=13.7079 Units=m
New Line.LINE174_1291 Bus1=174_1284 Bus2=174_1292 phases=3 Linecode=2c_.04 Length=5.6122 Units=m
New Line.LINE174_1295 Bus1=174_1288 Bus2=174_1296 phases=3 Linecode=2c_.04 Length=5.4356 Units=m
New Line.LINE174_1299 Bus1=174_1290 Bus2=174_1300 phases=3 Linecode=2c_.04 Length=5.8275 Units=m
New Line.LINE174_1330 Bus1=174_1323 Bus2=174_1331 phases=3 Linecode=2c_.04 Length=3.4503 Units=m
New Line.LINE174_1334 Bus1=174_1326 Bus2=174_1335 phases=3 Linecode=2c_.04 Length=4.095 Units=m
New Line.LINE174_1365 Bus1=174_1358 Bus2=174_1366 phases=3 Linecode=2c_.04 Length=4.4487 Units=m
New Line.LINE174_1371 Bus1=174_1363 Bus2=174_1372 phases=3 Linecode=2c_.04 Length=4.3293 Units=m
New Line.LINE174_1394 Bus1=174_1387 Bus2=174_1395 phases=3 Linecode=2c_.04 Length=5.0988 Units=m
New Line.LINE174_1396 Bus1=174_1388 Bus2=174_1397 phases=3 Linecode=2c_.04 Length=3.9097 Units=m
New Line.LINE174_1428 Bus1=174_1423 Bus2=174_1429 phases=3 Linecode=2c_.04 Length=1.733 Units=m
New Line.LINE174_1442 Bus1=174_1437 Bus2=174_1443 phases=3 Linecode=2c_.04 Length=6.4539 Units=m
New Line.LINE174_1464 Bus1=174_1461 Bus2=174_1465 phases=3 Linecode=2c_.04 Length=5.5541 Units=m
New Line.LINE174_1478 Bus1=174_1475 Bus2=174_1479 phases=3 Linecode=2c_.04 Length=5.1458 Units=m
New Line.LINE174_1488 Bus1=174_1485 Bus2=174_1489 phases=3 Linecode=2c_.04 Length=1.6821 Units=m
New Line.LINE174_1490 Bus1=174_1486 Bus2=174_1491 phases=3 Linecode=2c_.04 Length=4.9056 Units=m
New Line.LINE174_Cmpd_0 Bus1=174_1358 Bus2=174_1437 phases=3 Linecode=2c_.04 Length=6.63987 Units=m
New Line.LINE174_Cmpd_1 Bus1=174_915 Bus2=174_1140 phases=3 Linecode=2c_.04 Length=26.09478 Units=m
New Line.LINE174_Cmpd_2 Bus1=174_1290 Bus2=174_1418 phases=3 Linecode=2c_.04 Length=13.14885 Units=m
New Line.LINE174_Cmpd_3 Bus1=174_177 Bus2=174_202 phases=3 Linecode=4c_.25 Length=41.5429 Units=m
New Line.LINE174_Cmpd_4 Bus1=174_1125 Bus2=174_1197 phases=3 Linecode=2c_.04 Length=3.58482 Units=m
New Line.LINE174_Cmpd_5 Bus1=174_108 Bus2=174_173 phases=3 Linecode=2c_.04 Length=10.54764 Units=m
New Line.LINE174_Cmpd_6 Bus1=174_840 Bus2=174_933 phases=3 Linecode=25_PSC Length=5.27912 Units=m
New Line.LINE174_Cmpd_7 Bus1=174_109 Bus2=174_207 phases=3 Linecode=2c_.04 Length=8.095808 Units=m
New Line.LINE174_Cmpd_8 Bus1=174_1288 Bus2=174_1408 phases=3 Linecode=2c_.04 Length=14.054081 Units=m
New Line.LINE174_Cmpd_9 Bus1=174_321 Bus2=174_397 phases=3 Linecode=2c_.04 Length=8.01495 Units=m
New Line.LINE174_Cmpd_10 Bus1=174_1289 Bus2=174_1323 phases=3 Linecode=2c_.04 Length=3.07338 Units=m
New Line.LINE174_Cmpd_11 Bus1=174_1486 Bus2=174_1528 phases=3 Linecode=2c_.04 Length=11.42466 Units=m
New Line.LINE174_Cmpd_12 Bus1=174_59 Bus2=174_109 phases=3 Linecode=2c_.04 Length=7.548121 Units=m
New Line.LINE174_Cmpd_13 Bus1=174_296 Bus2=174_392 phases=3 Linecode=2c_.04 Length=10.88752 Units=m
New Line.LINE174_Cmpd_14 Bus1=174_1218 Bus2=174_1363 phases=3 Linecode=2c_.04 Length=11.87662 Units=m
New Line.LINE174_Cmpd_15 Bus1=174_1148 Bus2=174_1200 phases=3 Linecode=2c_.04 Length=5.434946 Units=m
New Line.LINE174_Cmpd_16 Bus1=174_724 Bus2=174_915 phases=3 Linecode=2c_.04 Length=7.32606 Units=m
New Line.LINE174_Cmpd_17 Bus1=174_840 Bus2=174_1009 phases=3 Linecode=2c_.04 Length=6.927924 Units=m
New Line.LINE174_Cmpd_18 Bus1=174_1387 Bus2=174_1461 phases=3 Linecode=2c_.04 Length=12.43988 Units=m
New Line.LINE174_Cmpd_19 Bus1=174_51 Bus2=174_97 phases=3 Linecode=2c_.04 Length=3.97698 Units=m
New Line.LINE174_Cmpd_20 Bus1=174_1461 Bus2=174_1525 phases=3 Linecode=2c_.04 Length=15.36962 Units=m
New Line.LINE174_Cmpd_21 Bus1=174_881 Bus2=174_1074 phases=3 Linecode=4c_.06 Length=32.97298 Units=m
New Line.LINE174_Cmpd_22 Bus1=174_269 Bus2=174_385 phases=3 Linecode=2c_.04 Length=11.95737 Units=m
New Line.LINE174_Cmpd_23 Bus1=174_592 Bus2=174_724 phases=3 Linecode=2c_.04 Length=3.43465 Units=m
New Line.LINE174_Cmpd_24 Bus1=174_187 Bus2=174_382 phases=3 Linecode=2c_.04 Length=15.566996 Units=m
New Line.LINE174_Cmpd_25 Bus1=174_457 Bus2=174_649 phases=3 Linecode=2c_.04 Length=13.99566 Units=m
New Line.LINE174_Cmpd_26 Bus1=174_1326 Bus2=174_1438 phases=3 Linecode=2c_.04 Length=12.77822 Units=m
New Line.LINE174_Cmpd_27 Bus1=174_881 Bus2=174_1047 phases=3 Linecode=4c_.06 Length=24.75066 Units=m
New Line.LINE174_Cmpd_28 Bus1=174_1197 Bus2=174_1326 phases=3 Linecode=2c_.04 Length=9.95853 Units=m
New Line.LINE174_Cmpd_29 Bus1=174_609 Bus2=174_797 phases=3 Linecode=4c_.06 Length=21.54794 Units=m
New Line.LINE174_Cmpd_30 Bus1=174_97 Bus2=174_187 phases=3 Linecode=2c_.04 Length=8.84202 Units=m
New Line.LINE174_Cmpd_31 Bus1=174_617 Bus2=174_770 phases=3 Linecode=2c_.04 Length=7.94768 Units=m
New Line.LINE174_Cmpd_32 Bus1=174_490 Bus2=174_752 phases=3 Linecode=2c_.04 Length=10.19677 Units=m
New Line.LINE174_Cmpd_33 Bus1=174_360 Bus2=174_547 phases=3 Linecode=2c_.04 Length=15.5242 Units=m
New Line.LINE174_Cmpd_34 Bus1=174_1243 Bus2=174_1284 phases=3 Linecode=2c_.04 Length=2.85129 Units=m
New Line.LINE174_Cmpd_35 Bus1=174_694 Bus2=174_948 phases=3 Linecode=2c_.04 Length=17.75291 Units=m
New Line.LINE174_Cmpd_36 Bus1=174_1323 Bus2=174_1423 phases=3 Linecode=2c_.04 Length=8.13876 Units=m
New Line.LINE174_Cmpd_37 Bus1=174_188 Bus2=174_348 phases=3 Linecode=2c_.04 Length=16.57002 Units=m
New Line.LINE174_Cmpd_38 Bus1=174_440 Bus2=174_782 phases=3 Linecode=2c_.04 Length=24.13004 Units=m
New Line.LINE174_Cmpd_39 Bus1=174_1044 Bus2=174_1170 phases=3 Linecode=2c_.04 Length=19.87153 Units=m
New Line.LINE174_Cmpd_40 Bus1=174_392 Bus2=174_440 phases=3 Linecode=2c_.04 Length=3.53963 Units=m
New Line.LINE174_Cmpd_41 Bus1=174_1047 Bus2=174_1125 phases=3 Linecode=4c_.04 Length=16.60874 Units=m
New Line.LINE174_Cmpd_42 Bus1=174_813 Bus2=174_1000 phases=3 Linecode=2c_.04 Length=17.72656 Units=m
New Line.LINE174_Cmpd_43 Bus1=174_609 Bus2=174_675 phases=3 Linecode=4c_.12 Length=38.76192 Units=m
New Line.LINE174_Cmpd_44 Bus1=174_444 Bus2=174_520 phases=3 Linecode=4c_.12 Length=33.6262 Units=m
New Line.LINE174_Cmpd_45 Bus1=174_1200 Bus2=174_1288 phases=3 Linecode=2c_.04 Length=11.19727 Units=m
New Line.LINE174_Cmpd_46 Bus1=174_649 Bus2=174_757 phases=3 Linecode=2c_.04 Length=7.32705 Units=m
New Line.LINE174_Cmpd_47 Bus1=174_1388 Bus2=174_1475 phases=3 Linecode=2c_.04 Length=13.033913 Units=m
New Line.LINE174_Cmpd_48 Bus1=174_1485 Bus2=174_1534 phases=3 Linecode=2c_.04 Length=14.839953 Units=m
New Line.LINE174_Cmpd_49 Bus1=174_1284 Bus2=174_1387 phases=3 Linecode=2c_.04 Length=9.13558 Units=m
New Line.LINE174_Cmpd_50 Bus1=174_483 Bus2=174_684 phases=3 Linecode=2c_.04 Length=17.9505 Units=m
New Line.LINE174_Cmpd_51 Bus1=174_191 Bus2=174_269 phases=3 Linecode=2c_.04 Length=6.60306 Units=m
New Line.LINE174_Cmpd_52 Bus1=174_776 Bus2=174_840 phases=3 Linecode=2c_.04 Length=1.09313 Units=m
New Line.LINE174_Cmpd_53 Bus1=174_1278 Bus2=174_1388 phases=3 Linecode=2c_.04 Length=8.232838 Units=m
New Line.LINE174_Cmpd_54 Bus1=174_725 Bus2=174_853 phases=3 Linecode=2c_.04 Length=11.34234 Units=m
New Line.LINE174_Cmpd_55 Bus1=174_770 Bus2=174_1100 phases=3 Linecode=2c_.04 Length=21.93453 Units=m
New Line.LINE174_Cmpd_56 Bus1=174_54 Bus2=174_177 phases=3 Linecode=4c_.25 Length=83.2647 Units=m
New Line.LINE174_Cmpd_57 Bus1=174_357 Bus2=174_425 phases=3 Linecode=4c_.25 Length=24.65438 Units=m
New Line.LINE174_Cmpd_58 Bus1=174_279 Bus2=174_351 phases=3 Linecode=2c_.04 Length=8.72513 Units=m
New Line.LINE174_Cmpd_59 Bus1=174_390 Bus2=174_465 phases=3 Linecode=2c_.04 Length=9.47056 Units=m
New Line.LINE174_Cmpd_60 Bus1=174_520 Bus2=174_592 phases=3 Linecode=4c_.04 Length=19.2592 Units=m
New Line.LINE174_Cmpd_61 Bus1=174_1437 Bus2=174_1486 phases=3 Linecode=2c_.04 Length=10.32635 Units=m
New Line.LINE174_Cmpd_62 Bus1=174_51 Bus2=174_98 phases=3 Linecode=2c_.04 Length=4.141891 Units=m
New Line.LINE174_Cmpd_63 Bus1=174_307 Bus2=174_414 phases=3 Linecode=2c_.04 Length=11.96312 Units=m
New Line.LINE174_Cmpd_64 Bus1=174_757 Bus2=174_943 phases=3 Linecode=2c_.04 Length=18.21874 Units=m
New Line.LINE174_Cmpd_65 Bus1=174_390 Bus2=174_492 phases=3 Linecode=2c_.04 Length=7.85955 Units=m
New Line.LINE174_Cmpd_66 Bus1=174_1423 Bus2=174_1485 phases=3 Linecode=2c_.04 Length=9.09104 Units=m
New Line.LINE174_Cmpd_67 Bus1=174_321 Bus2=174_398 phases=3 Linecode=2c_.04 Length=8.0103 Units=m
New Line.LINE174_Cmpd_68 Bus1=174_858 Bus2=174_1022 phases=3 Linecode=2c_.04 Length=8.39579 Units=m
New Line.LINE174_Cmpd_69 Bus1=174_823 Bus2=174_932 phases=3 Linecode=25_PSC Length=5.12374 Units=m
New Line.LINE174_Cmpd_70 Bus1=174_1475 Bus2=174_1531 phases=3 Linecode=2c_.04 Length=11.39824 Units=m
New Line.LINE174_Cmpd_71 Bus1=174_207 Bus2=174_383 phases=3 Linecode=2c_.04 Length=11.346017 Units=m
New Line.LINE174_Cmpd_72 Bus1=174_1022 Bus2=174_1230 phases=3 Linecode=2c_.04 Length=18.980297 Units=m
New Line.LINE174_Cmpd_73 Bus1=174_490 Bus2=174_610 phases=3 Linecode=2c_.04 Length=5.48418 Units=m
New Line.LINE174_Cmpd_74 Bus1=174_465 Bus2=174_527 phases=3 Linecode=2c_.04 Length=10.28319 Units=m
New Line.LINE174_Cmpd_75 Bus1=174_1125 Bus2=174_1196 phases=3 Linecode=2c_.04 Length=6.045155 Units=m
New Line.LINE174_Cmpd_76 Bus1=174_694 Bus2=174_858 phases=3 Linecode=2c_.04 Length=3.61595 Units=m
New Line.LINE174_Cmpd_77 Bus1=174_1289 Bus2=174_1358 phases=3 Linecode=2c_.04 Length=4.41046 Units=m
New Line.LINE174_Cmpd_78 Bus1=174_177 Bus2=174_191 phases=3 Linecode=2c_.04 Length=6.36419 Units=m
New Line.LINE174_Cmpd_79 Bus1=174_1022 Bus2=174_1090 phases=3 Linecode=2c_.04 Length=6.11291 Units=m
New Line.LINE174_Cmpd_80 Bus1=174_237 Bus2=174_307 phases=3 Linecode=2c_.04 Length=6.79371 Units=m
New Line.LINE174_Cmpd_81 Bus1=174_823 Bus2=174_945 phases=3 Linecode=2c_.04 Length=7.129699 Units=m
New Line.LINE174_Cmpd_82 Bus1=174_1243 Bus2=174_1278 phases=3 Linecode=2c_.04 Length=3.6524 Units=m
New Line.LINE174_Cmpd_83 Bus1=174_1148 Bus2=174_1218 phases=3 Linecode=2c_.04 Length=3.04463 Units=m
New Line.LINE174_Cmpd_84 Bus1=174_284 Bus2=174_360 phases=3 Linecode=2c_.04 Length=12.35227 Units=m
New Line.LINE174_Cmpd_85 Bus1=174_547 Bus2=174_800 phases=3 Linecode=2c_.04 Length=17.13623 Units=m
New Line.LINE174_Cmpd_86 Bus1=174_862 Bus2=174_1024 phases=3 Linecode=2c_.04 Length=11.44483 Units=m
New Line.LINE174_Cmpd_87 Bus1=174_1196 Bus2=174_1290 phases=3 Linecode=2c_.04 Length=11.518622 Units=m
New Line.LINE174_Cmpd_88 Bus1=174_948 Bus2=174_1044 phases=3 Linecode=2c_.04 Length=8.15672 Units=m
New Line.LINE174_Cmpd_89 Bus1=174_622 Bus2=174_691 phases=3 Linecode=2c_.04 Length=5.14951 Units=m
New Line.LINE174_Cmpd_90 Bus1=174_1074 Bus2=174_1148 phases=3 Linecode=2c_.04 Length=16.99533 Units=m
New Line.LINE174_Cmpd_91 Bus1=174_1363 Bus2=174_1441 phases=3 Linecode=2c_.04 Length=12.48781 Units=m
New Line.LINE174_Cmpd_92 Bus1=174_520 Bus2=174_609 phases=3 Linecode=4c_.12 Length=16.01617 Units=m
New Line.LINE174_Cmpd_93 Bus1=174_524 Bus2=174_560 phases=3 Linecode=2c_.04 Length=3.8912 Units=m
New Line.LINE174_Cmpd_94 Bus1=174_98 Bus2=174_188 phases=3 Linecode=2c_.04 Length=7.90992 Units=m
New Line.LINE174_Cmpd_95 Bus1=174_457 Bus2=174_617 phases=3 Linecode=2c_.04 Length=7.01431 Units=m
New Line.LINE174_Cmpd_96 Bus1=174_814 Bus2=174_862 phases=3 Linecode=2c_.04 Length=14.9238 Units=m
New Line.LINE174_Cmpd_97 Bus1=174_296 Bus2=174_357 phases=3 Linecode=4c_.25 Length=42.3649 Units=m
New Line.LINE174_Cmpd_98 Bus1=174_492 Bus2=174_564 phases=3 Linecode=2c_.04 Length=11.13588 Units=m
New Line.LINE174_Cmpd_99 Bus1=174_202 Bus2=174_237 phases=3 Linecode=2c_.04 Length=6.1183 Units=m
New Line.LINE174_Cmpd_100 Bus1=174_240 Bus2=174_284 phases=3 Linecode=4c_.25 Length=29.3625 Units=m
New Line.LINE174_Cmpd_101 Bus1=174_945 Bus2=174_1077 phases=3 Linecode=2c_.04 Length=18.96491 Units=m
New Line.LINE174_Cmpd_102 Bus1=174_202 Bus2=174_240 phases=3 Linecode=4c_.25 Length=24.0901 Units=m
New Line.LINE174_Cmpd_103 Bus1=174_59 Bus2=174_108 phases=3 Linecode=2c_.04 Length=5.0082 Units=m
New Line.LINE174_Cmpd_104 Bus1=174_814 Bus2=174_881 phases=3 Linecode=4c_.06 Length=42.09534 Units=m
New Line.LINE174_Cmpd_105 Bus1=174_463 Bus2=174_490 phases=3 Linecode=2c_.04 Length=7.5534 Units=m
New Line.LINE174_Cmpd_106 Bus1=174_637 Bus2=174_725 phases=3 Linecode=2c_.04 Length=6.47779 Units=m
New Line.LINE174_Cmpd_107 Bus1=174_357 Bus2=174_390 phases=3 Linecode=2c_.04 Length=9.65465 Units=m
New Line.LINE174_Cmpd_108 Bus1=174_279 Bus2=174_352 phases=3 Linecode=2c_.04 Length=8.21146 Units=m
New Line.LINE174_Cmpd_109 Bus1=174_436 Bus2=174_462 phases=3 Linecode=2c_.04 Length=11.6902 Units=m
New Line.LINE174_Cmpd_110 Bus1=174_425 Bus2=174_461 phases=3 Linecode=2c_.04 Length=15.2468 Units=m
New Line.LINE174_Cmpd_111 Bus1=174_524 Bus2=174_581 phases=3 Linecode=2c_.04 Length=6.14798 Units=m
New Line.LINE174_Cmpd_112 Bus1=174_776 Bus2=174_823 phases=3 Linecode=2c_.04 Length=1.03516 Units=m
New Line.LINE174_Cmpd_113 Bus1=174_637 Bus2=174_707 phases=3 Linecode=25_PSC Length=4.47236 Units=m
New Line.LINE174_Cmpd_114 Bus1=174_432 Bus2=174_483 phases=3 Linecode=2c_.04 Length=15.55822 Units=m
New Line.LINE174_Cmpd_115 Bus1=174_47 Bus2=174_54 phases=3 Linecode=4c_.25 Length=45.6272 Units=m
New Line.LINE174_Cmpd_116 Bus1=174_592 Bus2=174_622 phases=3 Linecode=2c_.04 Length=6.45 Units=m
New Line.LINE174_Cmpd_117 Bus1=174_436 Bus2=174_463 phases=3 Linecode=4c_.25 Length=14.5738 Units=m
New Line.LINE174_Cmpd_118 Bus1=174_782 Bus2=174_815 phases=3 Linecode=2c_.04 Length=7.3863 Units=m
