Test_Network/condensed/network_17/Feeder_5/LinesUnq_pruned.txt
New Line.LINE175_38 Bus1=175_38 Bus2=175_39 phases=3 Linecode=4c_.25 Length=1.2503 Units=m
New Line.LINE175_40 Bus1=175_39 Bus2=175_41 phases=3 Linecode=4c_.25 Length=10.8805 Units=m
New Line.LINE175_50 Bus1=175_47 Bus2=175_51 phases=3 Linecode=2c_.04 Length=12.2012 Units=m
New Line.LINE175_77 Bus1=175_72 Bus2=175_78 phases=3 Linecode=2c_.04 Length=4.538 Units=m
New Line.LINE175_95 Bus1=175_89 Bus2=175_96 phases=3 Linecode=2c_.04 Length=6.8722 Units=m
New Line.LINE175_111 Bus1=175_104 Bus2=175_112 phases=3 Linecode=2c_.04 Length=5.5946 Units=m
New Line.LINE175_117 Bus1=175_108 Bus2=175_118 phases=3 Linecode=4c_.25 Length=4.9378 Units=m
New Line.LINE175_126 Bus1=175_118 Bus2=175_127 phases=3 Linecode=2c_.04 Length=7.5904 Units=m
New Line.LINE175_127 Bus1=175_118 Bus2=175_128 phases=3 Linecode=4c_.25 Length=1.772 Units=m
New Line.LINE175_138 Bus1=175_128 Bus2=175_139 phases=3 Linecode=25_SAC_XC Length=4.6884 Units=m
New Line.LINE175_158 Bus1=175_147 Bus2=175_159 phases=3 Linecode=2c_.04 Length=4.8641 Units=m
New Line.LINE175_195 Bus1=175_181 Bus2=175_196 phases=3 Linecode=2c_.04 Length=5.1097 Units=m
New Line.LINE175_198 Bus1=175_182 Bus2=175_199 phases=3 Linecode=2c_.04 Length=4.3768 Units=m
New Line.LINE175_207 Bus1=175_191 Bus2=175_208 phases=3 Linecode=2c_.04 Length=5.5803 Units=m
New Line.LINE175_229 Bus1=175_210 Bus2=175_230 phases=3 Linecode=2c_.04 Length=5.9129 Units=m
New Line.LINE175_270 Bus1=175_250 Bus2=175_271 phases=3 Linecode=4c_.12 Length=15.6927 Units=m
New Line.LINE175_275 Bus1=175_254 Bus2=175_276 phases=3 Linecode=2c_.04 Length=7.3711 Units=m
New Line.LINE175_287 Bus1=175_266 Bus2=175_288 phases=3 Linecode=2c_.04 Length=6.9097 Units=m
New Line.LINE175_294 Bus1=175_271 Bus2=175_295 phases=3 Linecode=4c_.12 Length=16.5942 Units=m
New Line.LINE175_360 Bus1=175_336 Bus2=175_361 phases=3 Linecode=2c_.04 Length=4.844 Units=m
New Line.LINE175_381 Bus1=175_354 Bus2=175_382 phases=3 Linecode=2c_.04 Length=4.8891 Units=m
New Line.LINE175_383 Bus1=175_355 Bus2=175_384 phases=3 Linecode=2c_.04 Length=5.8829 Units=m
New Line.LINE175_390 Bus1=175_360 Bus2=175_391 phases=3 Linecode=2c_.04 Length=4.6643 Units=m
New Line.LINE175_395 Bus1=175_365 Bus2=175_396 phases=3 Linecode=2c_.04 Length=6.0097 Units=m
New Line.LINE175_400 Bus1=175_369 Bus2=175_401 phases=3 Linecode=2c_.04 Length=3.0779 Units=m
New Line.LINE175_410 Bus1=175_378 Bus2=175_411 phases=3 Linecode=4c_.25 Length=21.8352 Units=m
New Line.LINE175_420 Bus1=175_388 Bus2=175_421 phases=3 Linecode=2c_.04 Length=4.2977 Units=m
New Line.LINE175_430 Bus1=175_403 Bus2=175_431 phases=3 Linecode=2c_.04 Length=1.8331 Units=m
New Line.LINE175_439 Bus1=175_411 Bus2=175_440 phases=3 Linecode=2c_.04 Length=8.3802 Units=m
New Line.LINE175_464 Bus1=175_436 Bus2=175_465 phases=3 Linecode=2c_.04 Length=5.3738 Units=m
New Line.LINE175_474 Bus1=175_443 Bus2=175_475 phases=3 Linecode=2c_.04 Length=5.2554 Units=m
New Line.LINE175_526 Bus1=175_495 Bus2=175_527 phases=3 Linecode=2c_.04 Length=3.7675 Units=m
New Line.LINE175_541 Bus1=175_509 Bus2=175_542 phases=3 Linecode=2c_.04 Length=6.0055 Units=m
New Line.LINE175_628 Bus1=175_596 Bus2=175_629 phases=3 Linecode=4c_.12 Length=5.4361 Units=m
New Line.LINE175_650 Bus1=175_614 Bus2=175_651 phases=3 Linecode=3c_185_SAC_XC Length=2.358 Units=m
New Line.LINE175_654 Bus1=175_619 Bus2=175_655 phases=3 Linecode=2c_.04 Length=3.8275 Units=m
New Line.LINE175_656 Bus1=175_620 Bus2=175_657 phases=3 Linecode=2c_.04 Length=3.4596 Units=m
New Line.LINE175_671 Bus1=175_636 Bus2=175_672 phases=3 Linecode=2c_.04 Length=4.7343 Units=m
New Line.LINE175_695 Bus1=175_660 Bus2=175_696 phases=3 Linecode=2c_.04 Length=4.1868 Units=m
New Line.LINE175_824 Bus1=175_795 Bus2=175_825 phases=3 Linecode=2c_.04 Length=4.4924 Units=m
New Line.LINE175_896 Bus1=175_874 Bus2=175_897 phases=3 Linecode=.04_LTC Length=4.884 Units=m
New Line.LINE175_924 Bus1=175_900 Bus2=175_925 phases=3 Linecode=2c_.04 Length=4.5433 Units=m
New Line.LINE175_949 Bus1=175_924 Bus2=175_950 phases=3 Linecode=2c_.04 Length=3.9736 Units=m
New Line.LINE175_978 Bus1=175_954 Bus2=175_979 phases=3 Linecode=2c_.04 Length=5.6149 Units=m
New Line.LINE175_1086 Bus1=175_1068 Bus2=175_1087 phases=3 Linecode=2c_.04 Length=6.3374 Units=m
New Line.LINE175_1099 Bus1=175_1081 Bus2=175_1100 phases=3 Linecode=4c_.06 Length=0.69623 Units=m
New Line.LINE175_1100 Bus1=175_1081 Bus2=175_1101 phases=3 Linecode=2c_.04 Length=4.0857 Units=m
New Line.LINE175_1143 Bus1=175_1126 Bus2=175_1144 phases=3 Linecode=2c_.04 Length=4.5201 Units=m
New Line.LINE175_1145 Bus1=175_1127 Bus2=175_1146 phases=3 Linecode=2c_.04 Length=4.1388 Units=m
New Line.LINE175_1182 Bus1=175_1164 Bus2=175_1183 phases=3 Linecode=.04_LTC Length=3.6508 Units=m
New Line.LINE175_1210 Bus1=175_1195 Bus2=175_1211 phases=3 Linecode=3c_95_SAC_XC Length=5.6944 Units=m
New Line.LINE175_1217 Bus1=175_1201 Bus2=175_1218 phases=3 Linecode=.04_LTC Length=5.6446 Units=m
New Line.LINE175_1229 Bus1=175_1211 Bus2=175_1230 phases=3 Linecode=3c_95_SAC_XC Length=4.0158 Units=m
New Line.LINE175_1232 Bus1=175_1214 Bus2=175_1233 phases=3 Linecode=2c_.04 Length=5.5568 Units=m
New Line.LINE175_1247 Bus1=175_1230 Bus2=175_1248 phases=3 Linecode=3c_95_SAC_XC Length=3.903 Units=m
New Line.LINE175_1253 Bus1=175_1235 Bus2=175_1254 phases=3 Linecode=2c_.04 Length=4.7978 Units=m
New Line.LINE175_1254 Bus1=175_1235 Bus2=175_1255 phases=3 Linecode=2c_.04 Length=5.3641 Units=m
New Line.LINE175_1255 Bus1=175_1236 Bus2=175_1256 phases=3 Linecode=2c_.04 Length=4.0648 Units=m
New Line.LINE175_1256 Bus1=175_1236 Bus2=175_1257 phases=3 Linecode=2c_.04 Length=5.8221 Units=m
New Line.LINE175_1275 Bus1=175_1255 Bus2=175_1276 phases=3 Linecode=2c_.04 Length=5.031 Units=m
New Line.LINE175_1277 Bus1=175_1257 Bus2=175_1278 phases=3 Linecode=2c_.04 Length=4.9748 Units=m
New Line.LINE175_1300 Bus1=175_1280 Bus2=175_1301 phases=3 Linecode=.04_LTC Length=4.5175 Units=m
New Line.LINE175_1366 Bus1=175_1344 Bus2=175_1367 phases=3 Linecode=2c_.04 Length=5.763 Units=m
New Line.LINE175_1376 Bus1=175_1353 Bus2=175_1377 phases=3 Linecode=3c_95_SAC_XC Length=6.7261 Units=m
New Line.LINE175_1400 Bus1=175_1377 Bus2=175_1401 phases=3 Linecode=3c_95_SAC_XC Length=2.0068 Units=m
New Line.LINE175_1449 Bus1=175_1423 Bus2=175_1450 phases=3 Linecode=.04_LTC Length=3.4203 Units=m
New Line.LINE175_1493 Bus1=175_1469 Bus2=175_1494 phases=3 Linecode=3c_185_SAC_XC Length=4.3065 Units=m
New Line.LINE175_1515 Bus1=175_1494 Bus2=175_1516 phases=3 Linecode=3c_185_SAC_XC Length=4.2019 Units=m
New Line.LINE175_1516 Bus1=175_1495 Bus2=175_1517 phases=3 Linecode=.04_XSC Length=3.8532 Units=m
New Line.LINE175_1582 Bus1=175_1561 Bus2=175_1583 phases=3 Linecode=3c_185_SAC_XC Length=8.5369 Units=m
New Line.LINE175_1619 Bus1=175_1594 Bus2=175_1620 phases=3 Linecode=35_SAC_PC Length=5.1875 Units=m
New Line.LINE175_1620 Bus1=175_1594 Bus2=175_1621 phases=3 Linecode=35_SAC_PC Length=3.2891 Units=m
New Line.LINE175_1636 Bus1=175_1610 Bus2=175_1637 phases=3 Linecode=2c_.04 Length=5.0182 Units=m
New Line.LINE175_1697 Bus1=175_1675 Bus2=175_1698 phases=3 Linecode=3c_95_SAC_XC Length=2.5004 Units=m
New Line.LINE175_1762 Bus1=175_1741 Bus2=175_1763 phases=3 Linecode=3c_95_SAC_XC Length=6.2107 Units=m
New Line.LINE175_1834 Bus1=175_1814 Bus2=175_1835 phases=3 Linecode=25_SAC_XC Length=5.8966 Units=m
New Line.LINE175_1872 Bus1=175_1853 Bus2=175_1873 phases=3 Linecode=3c_95_SAC_XC Length=1.7996 Units=m
New Line.LINE175_1895 Bus1=175_1876 Bus2=175_1896 phases=3 Linecode=25_SAC_XC Length=7.8469 Units=m
New Line.LINE175_1930 Bus1=175_1910 Bus2=175_1931 phases=3 Linecode=3c_95_SAC_XC Length=3.4303 Units=m
New Line.LINE175_1992 Bus1=175_1973 Bus2=175_1993 phases=3 Linecode=3c_95_SAC_XC Length=2.9214 Units=m
New Line.LINE175_2012 Bus1=175_1993 Bus2=175_2013 phases=3 Linecode=3c_95_SAC_XC Length=1.8222 Units=m
New Line.LINE175_2124 Bus1=175_2102 Bus2=175_2125 phases=3 Linecode=3c_95_SAC_XC Length=4.3646 Units=m
New Line.LINE175_2222 Bus1=175_2196 Bus2=175_2223 phases=3 Linecode=3c_95_SAC_XC Length=4.2274 Units=m
New Line.LINE175_2250 Bus1=175_2223 Bus2=175_2251 phases=3 Linecode=3c_95_SAC_XC Length=2.7155 Units=m
New Line.LINE175_2262 Bus1=175_2235 Bus2=175_2263 phases=3 Linecode=3c_95_SAC_XC Length=1.4598 Units=m
New Line.LINE175_2290 Bus1=175_2263 Bus2=175_2291 phases=3 Linecode=3c_95_SAC_XC Length=3.3282 Units=m
New Line.LINE175_2370 Bus1=175_2346 Bus2=175_2371 phases=3 Linecode=3c_95_SAC_XC Length=2.3836 Units=m
New Line.LINE175_2395 Bus1=175_2371 Bus2=175_2396 phases=3 Linecode=3c_95_SAC_XC Length=3.4374 Units=m
New Line.LINE175_2580 Bus1=175_2561 Bus2=175_2581 phases=3 Linecode=3c_95_SAC_XC Length=8.4954 Units=m
New Line.LINE175_2599 Bus1=175_2581 Bus2=175_2600 phases=3 Linecode=25_SAC_XC Length=4.5651 Units=m
New Line.LINE175_Cmpd_0 Bus1=175_2196 Bus2=175_2744 phases=3 Linecode=35_SAC_PC Length=27.227921 Units=m
New Line.LINE175_Cmpd_1 Bus1=175_108 Bus2=175_207 phases=3 Linecode=4c_.12 Length=23.03866 Units=m
New Line.LINE175_Cmpd_2 Bus1=175_2402 Bus2=175_2743 phases=3 Linecode=35_SAC_PC Length=40.229619 Units=m
New Line.LINE175_Cmpd_3 Bus1=175_1 Bus2=175_38 phases=3 Linecode=3c_300_SAC_XC Length=45.954757 Units=m
New Line.LINE175_Cmpd_4 Bus1=175_1501 Bus2=175_1568 phases=3 Linecode=3c_95_SAC_XC Length=4.4088 Units=m
New Line.LINE175_Cmpd_5 Bus1=175_1294 Bus2=175_1388 phases=3 Linecode=3c_185_SAC_XC Length=10.083655 Units=m
New Line.LINE175_Cmpd_6 Bus1=175_1249 Bus2=175_1532 phases=3 Linecode=35_SAC_PC Length=9.71215 Units=m
New Line.LINE175_Cmpd_7 Bus1=175_882 Bus2=175_1190 phases=3 Linecode=2c_.0225 Length=6.7369 Units=m
New Line.LINE175_Cmpd_8 Bus1=175_1494 Bus2=175_1699 phases=3 Linecode=35_SAC_PC Length=10.06611 Units=m
New Line.LINE175_Cmpd_9 Bus1=175_1905 Bus2=175_2349 phases=3 Linecode=35_SAC_PC Length=29.624 Units=m
New Line.LINE175_Cmpd_10 Bus1=175_1730 Bus2=175_2034 phases=3 Linecode=35_SAC_PC Length=14.5122 Units=m
New Line.LINE175_Cmpd_11 Bus1=175_1377 Bus2=175_1773 phases=3 Linecode=35_SAC_PC Length=18.91715 Units=m
New Line.LINE175_Cmpd_12 Bus1=175_531 Bus2=175_802 phases=3 Linecode=2c_.04 Length=6.20342 Units=m
New Line.LINE175_Cmpd_13 Bus1=175_195 Bus2=175_355 phases=3 Linecode=2c_.04 Length=5.672701 Units=m
New Line.LINE175_Cmpd_14 Bus1=175_2251 Bus2=175_2586 phases=3 Linecode=35_SAC_PC Length=11.27018 Units=m
New Line.LINE175_Cmpd_15 Bus1=175_1905 Bus2=175_2553 phases=3 Linecode=35_SAC_PC Length=31.72572 Units=m
New Line.LINE175_Cmpd_16 Bus1=175_1126 Bus2=175_1397 phases=3 Linecode=2c_.04 Length=18.90997 Units=m
New Line.LINE175_Cmpd_17 Bus1=175_1698 Bus2=175_2294 phases=3 Linecode=35_SAC_PC Length=26.813091 Units=m
New Line.LINE175_Cmpd_18 Bus1=175_463 Bus2=175_882 phases=3 Linecode=2c_.0225 Length=10.20128 Units=m
New Line.LINE175_Cmpd_19 Bus1=175_1910 Bus2=175_2232 phases=3 Linecode=35_SAC_PC Length=12.92958 Units=m
New Line.LINE175_Cmpd_20 Bus1=175_944 Bus2=175_1177 phases=3 Linecode=35_SAC_XC Length=8.6595 Units=m
New Line.LINE175_Cmpd_21 Bus1=175_436 Bus2=175_860 phases=3 Linecode=2c_.04 Length=16.1869 Units=m
New Line.LINE175_Cmpd_22 Bus1=175_1993 Bus2=175_2541 phases=3 Linecode=35_SAC_PC Length=23.285604 Units=m
New Line.LINE175_Cmpd_23 Bus1=175_2196 Bus2=175_2696 phases=3 Linecode=35_SAC_PC Length=20.291994 Units=m
New Line.LINE175_Cmpd_24 Bus1=175_104 Bus2=175_365 phases=3 Linecode=2c_.04 Length=8.411102 Units=m
New Line.LINE175_Cmpd_25 Bus1=175_2396 Bus2=175_2751 phases=3 Linecode=35_SAC_PC Length=25.11679 Units=m
New Line.LINE175_Cmpd_26 Bus1=175_51 Bus2=175_89 phases=3 Linecode=2c_.04 Length=6.37431 Units=m
New Line.LINE175_Cmpd_27 Bus1=175_1169 Bus2=175_1501 phases=3 Linecode=3c_95_SAC_XC Length=23.8471 Units=m
New Line.LINE175_Cmpd_28 Bus1=175_443 Bus2=175_809 phases=3 Linecode=2c_.04 Length=13.79845 Units=m
New Line.LINE175_Cmpd_29 Bus1=175_1698 Bus2=175_2397 phases=3 Linecode=35_SAC_PC Length=25.082054 Units=m
New Line.LINE175_Cmpd_30 Bus1=175_897 Bus2=175_1280 phases=3 Linecode=.04_LTC Length=9.666352 Units=m
New Line.LINE175_Cmpd_31 Bus1=175_596 Bus2=175_1169 phases=3 Linecode=3c_95_SAC_XC Length=31.52153 Units=m
New Line.LINE175_Cmpd_32 Bus1=175_365 Bus2=175_766 phases=3 Linecode=2c_.04 Length=14.31898 Units=m
New Line.LINE175_Cmpd_33 Bus1=175_1730 Bus2=175_1853 phases=3 Linecode=3c_95_SAC_XC Length=13.2001 Units=m
New Line.LINE175_Cmpd_34 Bus1=175_39 Bus2=175_45 phases=3 Linecode=3c_300_SAC_XC Length=1.30337 Units=m
New Line.LINE175_Cmpd_35 Bus1=175_2402 Bus2=175_2715 phases=3 Linecode=35_SAC_PC Length=19.60103 Units=m
New Line.LINE175_Cmpd_36 Bus1=175_509 Bus2=175_962 phases=3 Linecode=2c_.04 Length=12.2556 Units=m
New Line.LINE175_Cmpd_37 Bus1=175_614 Bus2=175_1056 phases=3 Linecode=35_SAC_PC Length=12.20428 Units=m
New Line.LINE175_Cmpd_38 Bus1=175_870 Bus2=175_1228 phases=3 Linecode=35_SAC_PC Length=15.33918 Units=m
New Line.LINE175_Cmpd_39 Bus1=175_1763 Bus2=175_2551 phases=3 Linecode=35_SAC_PC Length=33.530847 Units=m
New Line.LINE175_Cmpd_40 Bus1=175_182 Bus2=175_305 phases=3 Linecode=4c_.25 Length=54.4858 Units=m
New Line.LINE175_Cmpd_41 Bus1=175_1388 Bus2=175_1628 phases=3 Linecode=35_SAC_PC Length=13.68898 Units=m
New Line.LINE175_Cmpd_42 Bus1=175_614 Bus2=175_1309 phases=3 Linecode=35_SAC_PC Length=31.34884 Units=m
New Line.LINE175_Cmpd_43 Bus1=175_305 Bus2=175_388 phases=3 Linecode=4c_.25 Length=36.8332 Units=m
New Line.LINE175_Cmpd_44 Bus1=175_1294 Bus2=175_1575 phases=3 Linecode=35_SAC_PC Length=12.72465 Units=m
New Line.LINE175_Cmpd_45 Bus1=175_1675 Bus2=175_1879 phases=3 Linecode=35_SAC_PC Length=12.41131 Units=m
New Line.LINE175_Cmpd_46 Bus1=175_1805 Bus2=175_1846 phases=3 Linecode=25_SAC_XC Length=11.497 Units=m
New Line.LINE175_Cmpd_47 Bus1=175_1501 Bus2=175_1831 phases=3 Linecode=35_SAC_PC Length=16.52754 Units=m
New Line.LINE175_Cmpd_48 Bus1=175_2402 Bus2=175_2691 phases=3 Linecode=35_SAC_PC Length=27.512041 Units=m
New Line.LINE175_Cmpd_49 Bus1=175_195 Bus2=175_354 phases=3 Linecode=2c_.04 Length=6.302291 Units=m
New Line.LINE175_Cmpd_50 Bus1=175_346 Bus2=175_531 phases=3 Linecode=16_PSC Length=9.86243 Units=m
New Line.LINE175_Cmpd_51 Bus1=175_2170 Bus2=175_2402 phases=3 Linecode=3c_95_SAC_XC Length=12.1654 Units=m
New Line.LINE175_Cmpd_52 Bus1=175_1973 Bus2=175_2258 phases=3 Linecode=35_SAC_PC Length=9.96559 Units=m
New Line.LINE175_Cmpd_53 Bus1=175_1423 Bus2=175_2124 phases=3 Linecode=.04_LTC Length=23.91264 Units=m
New Line.LINE175_Cmpd_54 Bus1=175_1853 Bus2=175_2067 phases=3 Linecode=3c_95_SAC_XC Length=10.5242 Units=m
New Line.LINE175_Cmpd_55 Bus1=175_1873 Bus2=175_2260 phases=3 Linecode=35_SAC_PC Length=13.06798 Units=m
New Line.LINE175_Cmpd_56 Bus1=175_2170 Bus2=175_2401 phases=3 Linecode=35_SAC_PC Length=11.62978 Units=m
New Line.LINE175_Cmpd_57 Bus1=175_266 Bus2=175_733 phases=3 Linecode=2c_.04 Length=14.398787 Units=m
New Line.LINE175_Cmpd_58 Bus1=175_2013 Bus2=175_2337 phases=3 Linecode=35_SAC_PC Length=14.06501 Units=m
New Line.LINE175_Cmpd_59 Bus1=175_92 Bus2=175_181 phases=3 Linecode=2c_.04 Length=11.47103 Units=m
New Line.LINE175_Cmpd_60 Bus1=175_2402 Bus2=175_2716 phases=3 Linecode=35_SAC_PC Length=22.069137 Units=m
...