Test_Network/condensed/network_17/Feeder_5/LoadsCopyUnq.txt
New Load.LOAD175_1 Phases=1 Bus1=175_78.2 kV=0.23 kW=1 PF=0.95
New Load.LOAD175_2 Phases=1 Bus1=175_87.2 kV=0.23 kW=1 PF=0.95
New Load.LOAD175_3 Phases=1 Bus1=175_96.1 kV=0.23 kW=1 PF=0.95
New Load.LOAD175_4 Phases=1 Bus1=175_112.3 kV=0.23 kW=1 PF=0.95
New Load.LOAD175_5 Phases=1 Bus1=175_139.1 kV=0.23 kW=1 PF=0.95
New Load.LOAD175_6 Phases=1 Bus1=175_159.2 kV=0.23 kW=1 PF=0.95
New Load.LOAD175_7 Phases=1 Bus1=175_174.2 kV=0.23 kW=1 PF=0.95
New Load.LOAD175_8 Phases=1 Bus1=175_196.3 kV=0.23 kW=1 PF=0.95
New Load.LOAD175_9 Phases=1 Bus1=175_208.1 kV=0.23 kW=1 PF=0.95
New Load.LOAD175_10 Phases=1 Bus1=175_230.2 kV=0.23 kW=1 PF=0.95
New Load.LOAD175_11 Phases=1 Bus1=175_237.3 kV=0.23 kW=1 PF=0.95
New Load.LOAD175_12 Phases=1 Bus1=175_288.1 kV=0.23 kW=1 PF=0.95
New Load.LOAD175_13 Phases=1 Bus1=175_316.1 kV=0.23 kW=1 PF=0.95
New Load.LOAD175_14 Phases=1 Bus1=175_361.2 kV=0.23 kW=1 PF=0.95
New Load.LOAD175_15 Phases=1 Bus1=175_382.3 kV=0.23 kW=1 PF=0.95
New Load.LOAD175_16 Phases=1 Bus1=175_384.1 kV=0.23 kW=1 PF=0.95
New Load.LOAD175_17 Phases=1 Bus1=175_391.3 kV=0.23 kW=1 PF=0.95
New Load.LOAD175_18 Phases=1 Bus1=175_396.3 kV=0.23 kW=1 PF=0.95
New Load.LOAD175_19 Phases=1 Bus1=175_401.3 kV=0.23 kW=1 PF=0.95
New Load.LOAD175_20 Phases=1 Bus1=175_430.3 kV=0.23 kW=1 PF=0.95
New Load.LOAD175_21 Phases=1 Bus1=175_431.2 kV=0.23 kW=1 PF=0.95
New Load.LOAD175_22 Phases=1 Bus1=175_465.1 kV=0.23 kW=1 PF=0.95
New Load.LOAD175_23 Phases=1 Bus1=175_475.3 kV=0.23 kW=1 PF=0.95
New Load.LOAD175_24 Phases=1 Bus1=175_494.2 kV=0.23 kW=1 PF=0.95
New Load.LOAD175_25 Phases=1 Bus1=175_500.2 kV=0.23 kW=1 PF=0.95
New Load.LOAD175_26 Phases=1 Bus1=175_527.1 kV=0.23 kW=1 PF=0.95
New Load.LOAD175_27 Phases=1 Bus1=175_542.2 kV=0.23 kW=1 PF=0.95
New Load.LOAD175_28 Phases=1 Bus1=175_562.1 kV=0.23 kW=1 PF=0.95
New Load.LOAD175_29 Phases=1 Bus1=175_571.2 kV=0.23 kW=1 PF=0.95
New Load.LOAD175_30 Phases=1 Bus1=175_655.1 kV=0.23 kW=1 PF=0.95
New Load.LOAD175_31 Phases=1 Bus1=175_657.3 kV=0.23 kW=1 PF=0.95
New Load.LOAD175_32 Phases=1 Bus1=175_672.2 kV=0.23 kW=1 PF=0.95
New Load.LOAD175_33 Phases=1 Bus1=175_696.2 kV=0.23 kW=1 PF=0.95
New Load.LOAD175_34 Phases=1 Bus1=175_733.1 kV=0.23 kW=1 PF=0.95
New Load.LOAD175_35 Phases=1 Bus1=175_742.3 kV=0.23 kW=1 PF=0.95
New Load.LOAD175_36 Phases=1 Bus1=175_766.3 kV=0.23 kW=1 PF=0.95
New Load.LOAD175_37 Phases=1 Bus1=175_802.3 kV=0.23 kW=1 PF=0.95
New Load.LOAD175_38 Phases=1 Bus1=175_808.1 kV=0.23 kW=1 PF=0.95
New Load.LOAD175_39 Phases=1 Bus1=175_809.3 kV=0.23 kW=1 PF=0.95
New Load.LOAD175_40 Phases=1 Bus1=175_825.3 kV=0.23 kW=1 PF=0.95
New Load.LOAD175_41 Phases=1 Bus1=175_836.1 kV=0.23 kW=1 PF=0.95
New Load.LOAD175_42 Phases=1 Bus1=175_840.1 kV=0.23 kW=1 PF=0.95
New Load.LOAD175_43 Phases=1 Bus1=175_860.1 kV=0.23 kW=1 PF=0.95
New Load.LOAD175_44 Phases=1 Bus1=175_865.3 kV=0.23 kW=1 PF=0.95
New Load.LOAD175_45 Phases=1 Bus1=175_888.2 kV=0.23 kW=1 PF=0.95
New Load.LOAD175_46 Phases=1 Bus1=175_925.3 kV=0.23 kW=1 PF=0.95
New Load.LOAD175_47 Phases=1 Bus1=175_950.1 kV=0.23 kW=1 PF=0.95
New Load.LOAD175_48 Phases=1 Bus1=175_962.2 kV=0.23 kW=1 PF=0.95
New Load.LOAD175_49 Phases=1 Bus1=175_979.2 kV=0.23 kW=1 PF=0.95
New Load.LOAD175_50 Phases=1 Bus1=175_1004.1 kV=0.23 kW=1 PF=0.95
New Load.LOAD175_51 Phases=1 Bus1=175_1030.3 kV=0.23 kW=1 PF=0.95
New Load.LOAD175_52 Phases=1 Bus1=175_1056.3 kV=0.23 kW=1 PF=0.95
New Load.LOAD175_53 Phases=1 Bus1=175_1071.2 kV=0.23 kW=1 PF=0.95
New Load.LOAD175_54 Phases=1 Bus1=175_1087.3 kV=0.23 kW=1 PF=0.95
New Load.LOAD175_55 Phases=1 Bus1=175_1111.2 kV=0.23 kW=1 PF=0.95
New Load.LOAD175_56 Phases=1 Bus1=175_1144.1 kV=0.23 kW=1 PF=0.95
New Load.LOAD175_57 Phases=1 Bus1=175_1146.3 kV=0.23 kW=1 PF=0.95
New Load.LOAD175_58 Phases=1 Bus1=175_1168.2 kV=0.23 kW=1 PF=0.95
New Load.LOAD175_59 Phases=1 Bus1=175_1171.1 kV=0.23 kW=1 PF=0.95
New Load.LOAD175_60 Phases=1 Bus1=175_1177.1 kV=0.23 kW=1 PF=0.95
New Load.LOAD175_61 Phases=1 Bus1=175_1183.1 kV=0.23 kW=1 PF=0.95
New Load.LOAD175_62 Phases=1 Bus1=175_1190.2 kV=0.23 kW=1 PF=0.95
New Load.LOAD175_63 Phases=1 Bus1=175_1194.2 kV=0.23 kW=1 PF=0.95
New Load.LOAD175_64 Phases=1 Bus1=175_1218.1 kV=0.23 kW=1 PF=0.95
New Load.LOAD175_65 Phases=1 Bus1=175_1228.2 kV=0.23 kW=1 PF=0.95
New Load.LOAD175_66 Phases=1 Bus1=175_1254.1 kV=0.23 kW=1 PF=0.95
New Load.LOAD175_67 Phases=1 Bus1=175_1256.2 kV=0.23 kW=1 PF=0.95
New Load.LOAD175_68 Phases=1 Bus1=175_1276.1 kV=0.23 kW=1 PF=0.95
New Load.LOAD175_69 Phases=1 Bus1=175_1278.2 kV=0.23 kW=1 PF=0.95
New Load.LOAD175_70 Phases=1 Bus1=175_1284.3 kV=0.23 kW=1 PF=0.95
New Load.LOAD175_71 Phases=1 Bus1=175_1301.2 kV=0.23 kW=1 PF=0.95
New Load.LOAD175_72 Phases=1 Bus1=175_1309.3 kV=0.23 kW=1 PF=0.95
New Load.LOAD175_73 Phases=1 Bus1=175_1367.2 kV=0.23 kW=1 PF=0.95
New Load.LOAD175_74 Phases=1 Bus1=175_1397.1 kV=0.23 kW=1 PF=0.95
New Load.LOAD175_75 Phases=1 Bus1=175_1405.3 kV=0.23 kW=1 PF=0.95
New Load.LOAD175_76 Phases=1 Bus1=175_1425.3 kV=0.23 kW=1 PF=0.95
...